
 OpenBabel12271914593D

 32 35  0  0  1  0  0  0  0  0999 V2000
    6.8540   49.5270   38.7210 C   0  0  1  0  0  0  0  0  0  0  0  0
    5.9730   49.6690   37.5310 N   0  0  0  0  0  0  0  0  0  0  0  0
    5.2250   48.9580   37.5230 H   0  0  0  0  0  0  0  0  0  0  0  0
    6.5000   49.6010   36.6490 H   0  0  0  0  0  0  0  0  0  0  0  0
    5.5150   50.5870   37.5200 H   0  0  0  0  0  0  0  0  0  0  0  0
    6.1790   50.0580   39.9940 C   0  0  0  0  0  0  0  0  0  0  0  0
    6.6610   51.3880   40.4570 C   0  0  0  0  0  0  0  0  0  0  0  0
    7.0490   51.7600   41.7650 C   0  0  0  0  0  0  0  0  0  0  0  0
    7.1090   51.1060   43.0030 C   0  0  0  0  0  0  0  0  0  0  0  0
    7.5440   51.8010   44.1410 C   0  0  0  0  0  0  0  0  0  0  0  0
    7.8990   53.1300   44.0630 C   0  0  0  0  0  0  0  0  0  0  0  0
    7.8360   53.8050   42.8450 C   0  0  0  0  0  0  0  0  0  0  0  0
    7.4140   53.0920   41.7190 C   0  0  0  0  0  0  0  0  0  0  0  0
    7.2530   53.5450   40.4290 N   0  0  0  0  0  0  0  0  0  0  0  0
    7.4120   54.4790   40.1020 H   0  0  0  0  0  0  0  0  0  0  0  0
    6.8010   52.5020   39.6660 C   0  0  0  0  0  0  0  0  0  0  0  0
    7.3490   48.0830   38.8630 C   0  0  0  0  0  0  0  0  0  0  0  0
    6.8690   47.5660   40.1080 O   0  0  0  0  0  0  0  0  0  0  0  0
    7.7160   46.8750   40.9110 C   0  0  0  0  0  0  0  0  0  0  0  0
    7.9710   47.1870   42.2390 C   0  0  0  0  0  0  0  0  0  0  0  0
    8.8340   46.3790   42.9830 C   0  0  0  0  0  0  0  0  0  0  0  0
    9.4150   45.2960   42.3450 C   0  0  0  0  0  0  0  0  0  0  0  0
    9.2030   44.9840   41.0500 N   0  0  0  0  0  0  0  0  0  0  0  0
    8.3570   45.7760   40.3610 C   0  0  0  0  0  0  0  0  0  0  0  0
    9.1320   46.6270   44.3950 C   0  0  0  0  0  0  0  0  0  0  0  0
    8.2530   46.5280   45.4070 C   0  0  0  0  0  0  0  0  0  0  0  0
    8.5390   46.7770   46.8250 C   0  0  0  0  0  0  0  0  0  0  0  0
    7.4650   46.7980   47.7210 C   0  0  0  0  0  0  0  0  0  0  0  0
    7.7160   47.0310   49.0540 C   0  0  0  0  0  0  0  0  0  0  0  0
    8.9530   47.2380   49.5280 N   0  0  0  0  0  0  0  0  0  0  0  0
    9.9810   47.2150   48.6580 C   0  0  0  0  0  0  0  0  0  0  0  0
    9.8220   46.9910   47.3160 C   0  0  0  0  0  0  0  0  0  0  0  0
  1 17  1  1  0  0  0
  1  6  1  0  0  0  0
  2  1  1  0  0  0  0
  3  2  1  0  0  0  0
  4  2  1  0  0  0  0
  5  2  1  0  0  0  0
  6  7  1  0  0  0  0
  7  8  1  0  0  0  0
  8  9  1  0  0  0  0
  9 10  2  0  0  0  0
 11 10  1  0  0  0  0
 12 11  2  0  0  0  0
 13  8  2  0  0  0  0
 13 12  1  0  0  0  0
 14 13  1  0  0  0  0
 15 14  1  0  0  0  0
 16 14  1  0  0  0  0
 16  7  2  0  0  0  0
 17 18  1  0  0  0  0
 18 19  1  0  0  0  0
 19 20  1  0  0  0  0
 20 21  2  0  0  0  0
 21 25  1  0  0  0  0
 22 21  1  0  0  0  0
 23 22  2  0  0  0  0
 24 19  2  0  0  0  0
 24 23  1  0  0  0  0
 25 26  2  0  0  0  0
 26 27  1  0  0  0  0
 27 32  2  0  0  0  0
 27 28  1  0  0  0  0
 28 29  2  0  0  0  0
 29 30  1  0  0  0  0
 31 30  2  0  0  0  0
 32 31  1  0  0  0  0
M  END
>  <minimizedAffinity>
-9.22504807

$$$$

 OpenBabel12271914593D

 32 35  0  0  1  0  0  0  0  0999 V2000
    7.8700   45.2590   39.9140 C   0  0  1  0  0  0  0  0  0  0  0  0
    7.3800   43.9630   39.3710 N   0  0  0  0  0  0  0  0  0  0  0  0
    8.0690   43.5320   38.7350 H   0  0  0  0  0  0  0  0  0  0  0  0
    6.4880   44.0670   38.8670 H   0  0  0  0  0  0  0  0  0  0  0  0
    7.2060   43.2900   40.1260 H   0  0  0  0  0  0  0  0  0  0  0  0
    8.9240   45.0530   41.0110 C   0  0  0  0  0  0  0  0  0  0  0  0
    8.4740   45.3850   42.3910 C   0  0  0  0  0  0  0  0  0  0  0  0
    8.6720   46.5930   43.0980 C   0  0  0  0  0  0  0  0  0  0  0  0
    9.3120   47.8090   42.8210 C   0  0  0  0  0  0  0  0  0  0  0  0
    9.3320   48.8260   43.7870 C   0  0  0  0  0  0  0  0  0  0  0  0
    8.7420   48.6400   45.0190 C   0  0  0  0  0  0  0  0  0  0  0  0
    8.1100   47.4360   45.3220 C   0  0  0  0  0  0  0  0  0  0  0  0
    8.0880   46.4390   44.3420 C   0  0  0  0  0  0  0  0  0  0  0  0
    7.5480   45.1750   44.4160 N   0  0  0  0  0  0  0  0  0  0  0  0
    7.0860   44.7710   45.2100 H   0  0  0  0  0  0  0  0  0  0  0  0
    7.7800   44.5420   43.2250 C   0  0  0  0  0  0  0  0  0  0  0  0
    8.3510   46.1760   38.7840 C   0  0  0  0  0  0  0  0  0  0  0  0
    7.2070   46.8040   38.1990 O   0  0  0  0  0  0  0  0  0  0  0  0
    6.8320   48.0350   38.6280 C   0  0  0  0  0  0  0  0  0  0  0  0
    7.0180   48.5090   39.9190 C   0  0  0  0  0  0  0  0  0  0  0  0
    6.6270   49.8120   40.2370 C   0  0  0  0  0  0  0  0  0  0  0  0
    6.0500   50.5760   39.2360 C   0  0  0  0  0  0  0  0  0  0  0  0
    5.8370   50.1320   37.9800 N   0  0  0  0  0  0  0  0  0  0  0  0
    6.2340   48.8750   37.7010 C   0  0  0  0  0  0  0  0  0  0  0  0
    6.8140   50.3930   41.5680 C   0  0  0  0  0  0  0  0  0  0  0  0
    7.2710   51.6300   41.8220 C   0  0  0  0  0  0  0  0  0  0  0  0
    7.4650   52.2220   43.1510 C   0  0  0  0  0  0  0  0  0  0  0  0
    6.9320   51.5510   44.2570 C   0  0  0  0  0  0  0  0  0  0  0  0
    7.1050   52.0930   45.5100 C   0  0  0  0  0  0  0  0  0  0  0  0
    7.7660   53.2420   45.7120 N   0  0  0  0  0  0  0  0  0  0  0  0
    8.2770   53.8810   44.6420 C   0  0  0  0  0  0  0  0  0  0  0  0
    8.1510   53.4120   43.3600 C   0  0  0  0  0  0  0  0  0  0  0  0
  1 17  1  6  0  0  0
  1  6  1  0  0  0  0
  2  1  1  0  0  0  0
  2  5  1  0  0  0  0
  3  2  1  0  0  0  0
  4  2  1  0  0  0  0
  6  7  1  0  0  0  0
  7  8  1  0  0  0  0
  7 16  2  0  0  0  0
  8 13  1  0  0  0  0
  9  8  2  0  0  0  0
  9 10  1  0  0  0  0
 10 11  2  0  0  0  0
 11 12  1  0  0  0  0
 13 14  1  0  0  0  0
 13 12  2  0  0  0  0
 14 15  1  0  0  0  0
 16 14  1  0  0  0  0
 18 19  1  0  0  0  0
 18 17  1  0  0  0  0
 19 20  2  0  0  0  0
 20 21  1  0  0  0  0
 21 25  1  0  0  0  0
 22 21  2  0  0  0  0
 23 22  1  0  0  0  0
 24 23  2  0  0  0  0
 24 19  1  0  0  0  0
 25 26  2  0  0  0  0
 26 27  1  0  0  0  0
 27 32  2  0  0  0  0
 27 28  1  0  0  0  0
 28 29  2  0  0  0  0
 29 30  1  0  0  0  0
 31 30  2  0  0  0  0
 32 31  1  0  0  0  0
M  END
>  <minimizedAffinity>
-9.2141037

$$$$

 OpenBabel12271914593D

 32 35  0  0  1  0  0  0  0  0999 V2000
    7.8470   47.2550   44.7720 C   0  0  1  0  0  0  0  0  0  0  0  0
    6.5890   46.7320   45.3700 N   0  0  0  0  0  0  0  0  0  0  0  0
    6.6600   46.6490   46.3960 H   0  0  0  0  0  0  0  0  0  0  0  0
    6.3290   45.8130   44.9840 H   0  0  0  0  0  0  0  0  0  0  0  0
    5.8000   47.3590   45.1730 H   0  0  0  0  0  0  0  0  0  0  0  0
    7.9970   48.7660   44.9980 C   0  0  0  0  0  0  0  0  0  0  0  0
    7.6580   49.6180   43.8240 C   0  0  0  0  0  0  0  0  0  0  0  0
    7.6240   51.0290   43.7610 C   0  0  0  0  0  0  0  0  0  0  0  0
    7.8500   52.0670   44.6750 C   0  0  0  0  0  0  0  0  0  0  0  0
    7.7110   53.4020   44.2680 C   0  0  0  0  0  0  0  0  0  0  0  0
    7.3370   53.7110   42.9780 C   0  0  0  0  0  0  0  0  0  0  0  0
    7.0950   52.6960   42.0540 C   0  0  0  0  0  0  0  0  0  0  0  0
    7.2520   51.3720   42.4740 C   0  0  0  0  0  0  0  0  0  0  0  0
    7.0520   50.2150   41.7550 N   0  0  0  0  0  0  0  0  0  0  0  0
    6.7480   50.1520   40.8020 H   0  0  0  0  0  0  0  0  0  0  0  0
    7.3070   49.1520   42.5800 C   0  0  0  0  0  0  0  0  0  0  0  0
    9.0570   46.4530   45.2620 C   0  0  0  0  0  0  0  0  0  0  0  0
    8.7350   45.8920   46.5380 O   0  0  0  0  0  0  0  0  0  0  0  0
    9.2390   46.4620   47.6610 C   0  0  0  0  0  0  0  0  0  0  0  0
    8.5250   46.6550   48.8350 C   0  0  0  0  0  0  0  0  0  0  0  0
    9.1610   47.2180   49.9440 C   0  0  0  0  0  0  0  0  0  0  0  0
   10.4930   47.5760   49.8130 C   0  0  0  0  0  0  0  0  0  0  0  0
   11.2040   47.4200   48.6770 N   0  0  0  0  0  0  0  0  0  0  0  0
   10.5660   46.8640   47.6270 C   0  0  0  0  0  0  0  0  0  0  0  0
    8.4830   47.4300   51.2240 C   0  0  0  0  0  0  0  0  0  0  0  0
    7.4240   48.2330   51.4240 C   0  0  0  0  0  0  0  0  0  0  0  0
    6.7380   48.4550   52.7020 C   0  0  0  0  0  0  0  0  0  0  0  0
    7.3400   47.9670   53.8670 C   0  0  0  0  0  0  0  0  0  0  0  0
    6.7090   48.1660   55.0740 C   0  0  0  0  0  0  0  0  0  0  0  0
    5.5380   48.8120   55.1760 N   0  0  0  0  0  0  0  0  0  0  0  0
    4.9670   49.2790   54.0490 C   0  0  0  0  0  0  0  0  0  0  0  0
    5.5250   49.1250   52.8080 C   0  0  0  0  0  0  0  0  0  0  0  0
  1  6  1  1  0  0  0
  1 17  1  0  0  0  0
  1  2  1  0  0  0  0
  2  3  1  0  0  0  0
  4  2  1  0  0  0  0
  5  2  1  0  0  0  0
  7  6  1  0  0  0  0
  8  7  1  0  0  0  0
  8  9  2  0  0  0  0
 10  9  1  0  0  0  0
 11 10  2  0  0  0  0
 12 13  2  0  0  0  0
 12 11  1  0  0  0  0
 13  8  1  0  0  0  0
 14 13  1  0  0  0  0
 14 16  1  0  0  0  0
 15 14  1  0  0  0  0
 16  7  2  0  0  0  0
 17 18  1  0  0  0  0
 18 19  1  0  0  0  0
 19 20  1  0  0  0  0
 20 21  2  0  0  0  0
 21 25  1  0  0  0  0
 22 21  1  0  0  0  0
 23 22  2  0  0  0  0
 24 19  2  0  0  0  0
 24 23  1  0  0  0  0
 25 26  2  0  0  0  0
 26 27  1  0  0  0  0
 27 32  2  0  0  0  0
 27 28  1  0  0  0  0
 28 29  2  0  0  0  0
 29 30  1  0  0  0  0
 31 30  2  0  0  0  0
 32 31  1  0  0  0  0
M  END
>  <minimizedAffinity>
-9.06231308

$$$$

 OpenBabel12271914593D

 32 35  0  0  1  0  0  0  0  0999 V2000
    7.6630   51.8800   44.7770 C   0  0  1  0  0  0  0  0  0  0  0  0
    7.4670   52.6810   46.0150 N   0  0  0  0  0  0  0  0  0  0  0  0
    6.4680   52.7810   46.2500 H   0  0  0  0  0  0  0  0  0  0  0  0
    7.8820   53.6200   45.9380 H   0  0  0  0  0  0  0  0  0  0  0  0
    7.9220   52.2320   46.8190 H   0  0  0  0  0  0  0  0  0  0  0  0
    7.4560   50.3800   45.0320 C   0  0  0  0  0  0  0  0  0  0  0  0
    8.3000   49.4750   44.2040 C   0  0  0  0  0  0  0  0  0  0  0  0
    7.8690   48.4950   43.2810 C   0  0  0  0  0  0  0  0  0  0  0  0
    6.6220   48.0270   42.8440 C   0  0  0  0  0  0  0  0  0  0  0  0
    6.5540   46.9970   41.8940 C   0  0  0  0  0  0  0  0  0  0  0  0
    7.7030   46.4220   41.3940 C   0  0  0  0  0  0  0  0  0  0  0  0
    8.9540   46.8630   41.8220 C   0  0  0  0  0  0  0  0  0  0  0  0
    9.0020   47.9000   42.7580 C   0  0  0  0  0  0  0  0  0  0  0  0
   10.1070   48.4810   43.3380 N   0  0  0  0  0  0  0  0  0  0  0  0
   11.0650   48.2320   43.1750 H   0  0  0  0  0  0  0  0  0  0  0  0
    9.6730   49.4420   44.2110 C   0  0  0  0  0  0  0  0  0  0  0  0
    6.7940   52.4190   43.6360 C   0  0  0  0  0  0  0  0  0  0  0  0
    7.6390   52.6700   42.5100 O   0  0  0  0  0  0  0  0  0  0  0  0
    7.2350   52.2800   41.2750 C   0  0  0  0  0  0  0  0  0  0  0  0
    7.0660   50.9600   40.8820 C   0  0  0  0  0  0  0  0  0  0  0  0
    6.6060   50.6780   39.5940 C   0  0  0  0  0  0  0  0  0  0  0  0
    6.3490   51.7460   38.7510 C   0  0  0  0  0  0  0  0  0  0  0  0
    6.5260   53.0380   39.1000 N   0  0  0  0  0  0  0  0  0  0  0  0
    6.9600   53.2790   40.3530 C   0  0  0  0  0  0  0  0  0  0  0  0
    6.3790   49.3130   39.1150 C   0  0  0  0  0  0  0  0  0  0  0  0
    6.9440   48.7630   38.0270 C   0  0  0  0  0  0  0  0  0  0  0  0
    6.7210   47.3990   37.5350 C   0  0  0  0  0  0  0  0  0  0  0  0
    5.6710   47.1850   36.6370 C   0  0  0  0  0  0  0  0  0  0  0  0
    5.4480   45.9110   36.1660 C   0  0  0  0  0  0  0  0  0  0  0  0
    6.2010   44.8650   36.5370 N   0  0  0  0  0  0  0  0  0  0  0  0
    7.2100   45.0800   37.4020 C   0  0  0  0  0  0  0  0  0  0  0  0
    7.5020   46.3150   37.9190 C   0  0  0  0  0  0  0  0  0  0  0  0
  1 17  1  6  0  0  0
  1  6  1  0  0  0  0
  1  2  1  0  0  0  0
  2  3  1  0  0  0  0
  2  5  1  0  0  0  0
  4  2  1  0  0  0  0
  7 16  2  0  0  0  0
  7  6  1  0  0  0  0
  8  7  1  0  0  0  0
  9  8  1  0  0  0  0
 10  9  2  0  0  0  0
 11 12  2  0  0  0  0
 11 10  1  0  0  0  0
 12 13  1  0  0  0  0
 13  8  2  0  0  0  0
 13 14  1  0  0  0  0
 14 16  1  0  0  0  0
 15 14  1  0  0  0  0
 18 17  1  0  0  0  0
 19 18  1  0  0  0  0
 20 19  1  0  0  0  0
 21 20  2  0  0  0  0
 22 23  2  0  0  0  0
 22 21  1  0  0  0  0
 23 24  1  0  0  0  0
 24 19  2  0  0  0  0
 25 21  1  0  0  0  0
 26 25  2  0  0  0  0
 27 32  1  0  0  0  0
 27 26  1  0  0  0  0
 28 27  2  0  0  0  0
 29 30  2  0  0  0  0
 29 28  1  0  0  0  0
 30 31  1  0  0  0  0
 31 32  2  0  0  0  0
M  END
>  <minimizedAffinity>
-9.02830791

$$$$

 OpenBabel12271914593D

 32 35  0  0  1  0  0  0  0  0999 V2000
    8.8310   44.2170   41.6250 C   0  0  1  0  0  0  0  0  0  0  0  0
    8.4690   42.8500   42.0880 N   0  0  0  0  0  0  0  0  0  0  0  0
    8.1710   42.8480   43.0750 H   0  0  0  0  0  0  0  0  0  0  0  0
    9.2480   42.1860   41.9790 H   0  0  0  0  0  0  0  0  0  0  0  0
    7.6900   42.4700   41.5370 H   0  0  0  0  0  0  0  0  0  0  0  0
    7.5860   45.0780   41.3690 C   0  0  0  0  0  0  0  0  0  0  0  0
    7.7090   46.0510   40.2480 C   0  0  0  0  0  0  0  0  0  0  0  0
    7.1260   47.3340   40.1500 C   0  0  0  0  0  0  0  0  0  0  0  0
    6.2830   48.1040   40.9630 C   0  0  0  0  0  0  0  0  0  0  0  0
    5.8700   49.3760   40.5390 C   0  0  0  0  0  0  0  0  0  0  0  0
    6.2700   49.8770   39.3190 C   0  0  0  0  0  0  0  0  0  0  0  0
    7.0980   49.1250   38.4870 C   0  0  0  0  0  0  0  0  0  0  0  0
    7.5110   47.8660   38.9330 C   0  0  0  0  0  0  0  0  0  0  0  0
    8.3030   46.9450   38.2860 N   0  0  0  0  0  0  0  0  0  0  0  0
    8.7030   47.0420   37.3720 H   0  0  0  0  0  0  0  0  0  0  0  0
    8.4250   45.8460   39.0940 C   0  0  0  0  0  0  0  0  0  0  0  0
    9.8250   44.8730   42.5900 C   0  0  0  0  0  0  0  0  0  0  0  0
    9.4070   44.5860   43.9270 O   0  0  0  0  0  0  0  0  0  0  0  0
    9.1540   45.6110   44.7790 C   0  0  0  0  0  0  0  0  0  0  0  0
    8.7250   46.8710   44.3890 C   0  0  0  0  0  0  0  0  0  0  0  0
    8.4580   47.8390   45.3590 C   0  0  0  0  0  0  0  0  0  0  0  0
    8.6500   47.4930   46.6870 C   0  0  0  0  0  0  0  0  0  0  0  0
    9.0870   46.2830   47.0930 N   0  0  0  0  0  0  0  0  0  0  0  0
    9.3270   45.3670   46.1330 C   0  0  0  0  0  0  0  0  0  0  0  0
    7.9780   49.1820   45.0290 C   0  0  0  0  0  0  0  0  0  0  0  0
    7.9860   49.7350   43.8040 C   0  0  0  0  0  0  0  0  0  0  0  0
    7.5110   51.0800   43.4610 C   0  0  0  0  0  0  0  0  0  0  0  0
    6.7810   51.7870   44.4230 C   0  0  0  0  0  0  0  0  0  0  0  0
    6.3270   53.0500   44.1170 C   0  0  0  0  0  0  0  0  0  0  0  0
    6.5590   53.6300   42.9300 N   0  0  0  0  0  0  0  0  0  0  0  0
    7.2630   52.9420   42.0110 C   0  0  0  0  0  0  0  0  0  0  0  0
    7.7510   51.6810   42.2320 C   0  0  0  0  0  0  0  0  0  0  0  0
  1  6  1  1  0  0  0
  1  2  1  0  0  0  0
  1 17  1  0  0  0  0
  2  3  1  0  0  0  0
  4  2  1  0  0  0  0
  5  2  1  0  0  0  0
  7  6  1  0  0  0  0
  8  7  1  0  0  0  0
  8  9  2  0  0  0  0
 10  9  1  0  0  0  0
 11 10  2  0  0  0  0
 12 13  2  0  0  0  0
 12 11  1  0  0  0  0
 13  8  1  0  0  0  0
 14 13  1  0  0  0  0
 14 16  1  0  0  0  0
 15 14  1  0  0  0  0
 16  7  2  0  0  0  0
 17 18  1  0  0  0  0
 18 19  1  0  0  0  0
 19 24  1  0  0  0  0
 20 19  2  0  0  0  0
 20 21  1  0  0  0  0
 21 22  2  0  0  0  0
 22 23  1  0  0  0  0
 24 23  2  0  0  0  0
 25 21  1  0  0  0  0
 26 25  2  0  0  0  0
 27 26  1  0  0  0  0
 27 28  2  0  0  0  0
 29 28  1  0  0  0  0
 30 29  2  0  0  0  0
 31 32  2  0  0  0  0
 31 30  1  0  0  0  0
 32 27  1  0  0  0  0
M  END
>  <minimizedAffinity>
-8.91215801

$$$$

 OpenBabel12271914593D

 32 35  0  0  1  0  0  0  0  0999 V2000
    7.5030   47.4560   41.3350 C   0  0  1  0  0  0  0  0  0  0  0  0
    6.9060   46.7960   40.1430 N   0  0  0  0  0  0  0  0  0  0  0  0
    6.2240   46.0700   40.4110 H   0  0  0  0  0  0  0  0  0  0  0  0
    7.6210   46.3680   39.5390 H   0  0  0  0  0  0  0  0  0  0  0  0
    6.4070   47.4770   39.5580 H   0  0  0  0  0  0  0  0  0  0  0  0
    6.5270   48.4490   41.9820 C   0  0  0  0  0  0  0  0  0  0  0  0
    6.7180   49.8720   41.5860 C   0  0  0  0  0  0  0  0  0  0  0  0
    7.1350   50.9490   42.4000 C   0  0  0  0  0  0  0  0  0  0  0  0
    7.4780   51.0920   43.7520 C   0  0  0  0  0  0  0  0  0  0  0  0
    7.8450   52.3510   44.2520 C   0  0  0  0  0  0  0  0  0  0  0  0
    7.8580   53.4590   43.4320 C   0  0  0  0  0  0  0  0  0  0  0  0
    7.5100   53.3430   42.0870 C   0  0  0  0  0  0  0  0  0  0  0  0
    7.1600   52.0780   41.6040 C   0  0  0  0  0  0  0  0  0  0  0  0
    6.7640   51.7250   40.3340 N   0  0  0  0  0  0  0  0  0  0  0  0
    6.6580   52.3420   39.5510 H   0  0  0  0  0  0  0  0  0  0  0  0
    6.5030   50.3810   40.3280 C   0  0  0  0  0  0  0  0  0  0  0  0
    8.0400   46.4140   42.3220 C   0  0  0  0  0  0  0  0  0  0  0  0
    9.0130   47.0480   43.1570 O   0  0  0  0  0  0  0  0  0  0  0  0
    9.2660   46.5380   44.3880 C   0  0  0  0  0  0  0  0  0  0  0  0
    9.7580   47.2730   45.4580 C   0  0  0  0  0  0  0  0  0  0  0  0
    9.9430   46.6500   46.6940 C   0  0  0  0  0  0  0  0  0  0  0  0
    9.6350   45.3020   46.7910 C   0  0  0  0  0  0  0  0  0  0  0  0
    9.1770   44.5600   45.7620 N   0  0  0  0  0  0  0  0  0  0  0  0
    8.9990   45.1920   44.5850 C   0  0  0  0  0  0  0  0  0  0  0  0
   10.4330   47.3620   47.8760 C   0  0  0  0  0  0  0  0  0  0  0  0
   10.1580   47.0400   49.1510 C   0  0  0  0  0  0  0  0  0  0  0  0
   10.6400   47.7470   50.3430 C   0  0  0  0  0  0  0  0  0  0  0  0
   11.8120   48.5040   50.2320 C   0  0  0  0  0  0  0  0  0  0  0  0
   12.2780   49.1730   51.3410 C   0  0  0  0  0  0  0  0  0  0  0  0
   11.6500   49.1280   52.5260 N   0  0  0  0  0  0  0  0  0  0  0  0
   10.5230   48.3970   52.6220 C   0  0  0  0  0  0  0  0  0  0  0  0
    9.9900   47.7010   51.5700 C   0  0  0  0  0  0  0  0  0  0  0  0
  1  6  1  1  0  0  0
  1 17  1  0  0  0  0
  2  3  1  0  0  0  0
  2  1  1  0  0  0  0
  4  2  1  0  0  0  0
  5  2  1  0  0  0  0
  7  6  1  0  0  0  0
  7  8  1  0  0  0  0
  8  9  2  0  0  0  0
  9 10  1  0  0  0  0
 11 10  2  0  0  0  0
 12 11  1  0  0  0  0
 13 12  2  0  0  0  0
 13  8  1  0  0  0  0
 14 13  1  0  0  0  0
 15 14  1  0  0  0  0
 16 14  1  0  0  0  0
 16  7  2  0  0  0  0
 17 18  1  0  0  0  0
 18 19  1  0  0  0  0
 19 24  2  0  0  0  0
 19 20  1  0  0  0  0
 20 21  2  0  0  0  0
 21 22  1  0  0  0  0
 21 25  1  0  0  0  0
 23 22  2  0  0  0  0
 24 23  1  0  0  0  0
 25 26  2  0  0  0  0
 26 27  1  0  0  0  0
 27 32  1  0  0  0  0
 28 27  2  0  0  0  0
 28 29  1  0  0  0  0
 29 30  2  0  0  0  0
 30 31  1  0  0  0  0
 32 31  2  0  0  0  0
M  END
>  <minimizedAffinity>
-8.81164551

$$$$

 OpenBabel12271914593D

 32 35  0  0  1  0  0  0  0  0999 V2000
    7.0360   48.6230   39.8060 C   0  0  1  0  0  0  0  0  0  0  0  0
    6.3400   47.8790   38.7220 N   0  0  0  0  0  0  0  0  0  0  0  0
    5.7640   47.1100   39.0970 H   0  0  0  0  0  0  0  0  0  0  0  0
    7.0000   47.4890   38.0340 H   0  0  0  0  0  0  0  0  0  0  0  0
    5.7110   48.4980   38.1960 H   0  0  0  0  0  0  0  0  0  0  0  0
    6.0780   49.5570   40.5590 C   0  0  0  0  0  0  0  0  0  0  0  0
    6.5140   50.9790   40.6400 C   0  0  0  0  0  0  0  0  0  0  0  0
    6.9630   51.6820   41.7810 C   0  0  0  0  0  0  0  0  0  0  0  0
    7.1400   51.3630   43.1340 C   0  0  0  0  0  0  0  0  0  0  0  0
    7.6070   52.3380   44.0280 C   0  0  0  0  0  0  0  0  0  0  0  0
    7.8810   53.6180   43.5950 C   0  0  0  0  0  0  0  0  0  0  0  0
    7.7030   53.9620   42.2570 C   0  0  0  0  0  0  0  0  0  0  0  0
    7.2500   52.9730   41.3780 C   0  0  0  0  0  0  0  0  0  0  0  0
    6.9820   53.0800   40.0320 N   0  0  0  0  0  0  0  0  0  0  0  0
    7.0660   53.9070   39.4730 H   0  0  0  0  0  0  0  0  0  0  0  0
    6.5410   51.8620   39.5880 C   0  0  0  0  0  0  0  0  0  0  0  0
    7.7870   47.6610   40.7320 C   0  0  0  0  0  0  0  0  0  0  0  0
    7.3540   47.9010   42.0740 O   0  0  0  0  0  0  0  0  0  0  0  0
    7.9930   47.2840   43.0990 C   0  0  0  0  0  0  0  0  0  0  0  0
    7.9350   47.6950   44.4230 C   0  0  0  0  0  0  0  0  0  0  0  0
    8.6030   46.9560   45.4030 C   0  0  0  0  0  0  0  0  0  0  0  0
    9.3140   45.8390   44.9980 C   0  0  0  0  0  0  0  0  0  0  0  0
    9.4050   45.4310   43.7150 N   0  0  0  0  0  0  0  0  0  0  0  0
    8.7410   46.1580   42.7940 C   0  0  0  0  0  0  0  0  0  0  0  0
    8.5680   47.3100   46.8230 C   0  0  0  0  0  0  0  0  0  0  0  0
    9.4610   46.9170   47.7480 C   0  0  0  0  0  0  0  0  0  0  0  0
    9.4350   47.2620   49.1740 C   0  0  0  0  0  0  0  0  0  0  0  0
    8.1910   47.3930   49.7980 C   0  0  0  0  0  0  0  0  0  0  0  0
    8.1490   47.7170   51.1350 C   0  0  0  0  0  0  0  0  0  0  0  0
    9.2580   47.9130   51.8640 N   0  0  0  0  0  0  0  0  0  0  0  0
   10.4520   47.7840   51.2540 C   0  0  0  0  0  0  0  0  0  0  0  0
   10.5850   47.4640   49.9280 C   0  0  0  0  0  0  0  0  0  0  0  0
  1  6  1  1  0  0  0
  1 17  1  0  0  0  0
  2  3  1  0  0  0  0
  2  1  1  0  0  0  0
  4  2  1  0  0  0  0
  5  2  1  0  0  0  0
  6  7  1  0  0  0  0
  7  8  1  0  0  0  0
  8  9  1  0  0  0  0
  9 10  2  0  0  0  0
 11 10  1  0  0  0  0
 12 11  2  0  0  0  0
 13  8  2  0  0  0  0
 13 12  1  0  0  0  0
 14 13  1  0  0  0  0
 15 14  1  0  0  0  0
 16 14  1  0  0  0  0
 16  7  2  0  0  0  0
 17 18  1  0  0  0  0
 18 19  1  0  0  0  0
 19 20  1  0  0  0  0
 20 21  2  0  0  0  0
 21 25  1  0  0  0  0
 22 21  1  0  0  0  0
 23 22  2  0  0  0  0
 24 19  2  0  0  0  0
 24 23  1  0  0  0  0
 25 26  2  0  0  0  0
 26 27  1  0  0  0  0
 27 28  2  0  0  0  0
 27 32  1  0  0  0  0
 28 29  1  0  0  0  0
 29 30  2  0  0  0  0
 31 30  1  0  0  0  0
 32 31  2  0  0  0  0
M  END
>  <minimizedAffinity>
-8.76423645

$$$$

 OpenBabel12271914593D

 32 35  0  0  1  0  0  0  0  0999 V2000
    9.1570   48.2310   45.2290 C   0  0  1  0  0  0  0  0  0  0  0  0
   10.0710   48.6040   44.1160 N   0  0  0  0  0  0  0  0  0  0  0  0
   10.0300   47.9220   43.3440 H   0  0  0  0  0  0  0  0  0  0  0  0
   11.0490   48.6870   44.4290 H   0  0  0  0  0  0  0  0  0  0  0  0
    9.8180   49.5190   43.7240 H   0  0  0  0  0  0  0  0  0  0  0  0
    7.6920   48.5360   44.8880 C   0  0  0  0  0  0  0  0  0  0  0  0
    7.4910   49.5220   43.7890 C   0  0  0  0  0  0  0  0  0  0  0  0
    7.5850   50.9300   43.8640 C   0  0  0  0  0  0  0  0  0  0  0  0
    7.8550   51.8510   44.8850 C   0  0  0  0  0  0  0  0  0  0  0  0
    7.8560   53.2260   44.6060 C   0  0  0  0  0  0  0  0  0  0  0  0
    7.5760   53.6880   43.3370 C   0  0  0  0  0  0  0  0  0  0  0  0
    7.2930   52.7920   42.3080 C   0  0  0  0  0  0  0  0  0  0  0  0
    7.3110   51.4250   42.6030 C   0  0  0  0  0  0  0  0  0  0  0  0
    7.0470   50.3640   41.7660 N   0  0  0  0  0  0  0  0  0  0  0  0
    6.7870   50.4200   40.7990 H   0  0  0  0  0  0  0  0  0  0  0  0
    7.1640   49.2100   42.4920 C   0  0  0  0  0  0  0  0  0  0  0  0
    9.3840   46.7760   45.6540 C   0  0  0  0  0  0  0  0  0  0  0  0
    8.5130   46.4890   46.7520 O   0  0  0  0  0  0  0  0  0  0  0  0
    8.9790   46.6130   48.0200 C   0  0  0  0  0  0  0  0  0  0  0  0
    8.3800   47.3840   49.0070 C   0  0  0  0  0  0  0  0  0  0  0  0
    8.9280   47.4050   50.2910 C   0  0  0  0  0  0  0  0  0  0  0  0
   10.0700   46.6540   50.5190 C   0  0  0  0  0  0  0  0  0  0  0  0
   10.6840   45.9150   49.5730 N   0  0  0  0  0  0  0  0  0  0  0  0
   10.1260   45.9060   48.3460 C   0  0  0  0  0  0  0  0  0  0  0  0
    8.3400   48.1720   51.3910 C   0  0  0  0  0  0  0  0  0  0  0  0
    7.0290   48.2560   51.6710 C   0  0  0  0  0  0  0  0  0  0  0  0
    6.4280   49.0230   52.7680 C   0  0  0  0  0  0  0  0  0  0  0  0
    7.2360   49.9350   53.4560 C   0  0  0  0  0  0  0  0  0  0  0  0
    6.6880   50.6620   54.4880 C   0  0  0  0  0  0  0  0  0  0  0  0
    5.4060   50.5290   54.8600 N   0  0  0  0  0  0  0  0  0  0  0  0
    4.6360   49.6490   54.1930 C   0  0  0  0  0  0  0  0  0  0  0  0
    5.0990   48.8860   53.1540 C   0  0  0  0  0  0  0  0  0  0  0  0
  1  6  1  6  0  0  0
  1 17  1  0  0  0  0
  2  4  1  0  0  0  0
  2  1  1  0  0  0  0
  3  2  1  0  0  0  0
  5  2  1  0  0  0  0
  7  8  1  0  0  0  0
  7  6  1  0  0  0  0
  8  9  2  0  0  0  0
 10  9  1  0  0  0  0
 11 10  2  0  0  0  0
 12 13  2  0  0  0  0
 12 11  1  0  0  0  0
 13  8  1  0  0  0  0
 14 16  1  0  0  0  0
 14 13  1  0  0  0  0
 15 14  1  0  0  0  0
 16  7  2  0  0  0  0
 17 18  1  0  0  0  0
 18 19  1  0  0  0  0
 19 24  2  0  0  0  0
 19 20  1  0  0  0  0
 20 21  2  0  0  0  0
 21 22  1  0  0  0  0
 21 25  1  0  0  0  0
 23 22  2  0  0  0  0
 24 23  1  0  0  0  0
 25 26  2  0  0  0  0
 26 27  1  0  0  0  0
 27 32  2  0  0  0  0
 27 28  1  0  0  0  0
 28 29  2  0  0  0  0
 29 30  1  0  0  0  0
 31 30  2  0  0  0  0
 32 31  1  0  0  0  0
M  END
>  <minimizedAffinity>
-8.64500237

$$$$

 OpenBabel12271914593D

 32 35  0  0  1  0  0  0  0  0999 V2000
    7.4450   47.9570   45.5490 C   0  0  1  0  0  0  0  0  0  0  0  0
    6.8760   48.2070   46.9000 N   0  0  0  0  0  0  0  0  0  0  0  0
    7.5800   48.0690   47.6420 H   0  0  0  0  0  0  0  0  0  0  0  0
    6.0680   47.6010   47.0980 H   0  0  0  0  0  0  0  0  0  0  0  0
    6.5360   49.1730   46.9830 H   0  0  0  0  0  0  0  0  0  0  0  0
    8.3310   49.1210   45.0820 C   0  0  0  0  0  0  0  0  0  0  0  0
    7.8150   49.8760   43.9060 C   0  0  0  0  0  0  0  0  0  0  0  0
    7.7710   51.2780   43.7310 C   0  0  0  0  0  0  0  0  0  0  0  0
    8.1340   52.3850   44.5100 C   0  0  0  0  0  0  0  0  0  0  0  0
    7.9330   53.6840   44.0190 C   0  0  0  0  0  0  0  0  0  0  0  0
    7.3640   53.8890   42.7800 C   0  0  0  0  0  0  0  0  0  0  0  0
    6.9840   52.8040   41.9920 C   0  0  0  0  0  0  0  0  0  0  0  0
    7.2050   51.5180   42.4930 C   0  0  0  0  0  0  0  0  0  0  0  0
    6.8980   50.3070   41.9130 N   0  0  0  0  0  0  0  0  0  0  0  0
    6.4500   50.1690   41.0260 H   0  0  0  0  0  0  0  0  0  0  0  0
    7.2770   49.3140   42.7750 C   0  0  0  0  0  0  0  0  0  0  0  0
    8.1610   46.6030   45.5010 C   0  0  0  0  0  0  0  0  0  0  0  0
    9.1520   46.6560   44.4710 O   0  0  0  0  0  0  0  0  0  0  0  0
    8.9910   45.9030   43.3540 C   0  0  0  0  0  0  0  0  0  0  0  0
    8.5100   46.3830   42.1440 C   0  0  0  0  0  0  0  0  0  0  0  0
    8.4250   45.5230   41.0470 C   0  0  0  0  0  0  0  0  0  0  0  0
    8.8170   44.2060   41.2260 C   0  0  0  0  0  0  0  0  0  0  0  0
    9.2670   43.7090   42.3970 N   0  0  0  0  0  0  0  0  0  0  0  0
    9.3480   44.5660   43.4340 C   0  0  0  0  0  0  0  0  0  0  0  0
    7.9530   45.9600   39.7320 C   0  0  0  0  0  0  0  0  0  0  0  0
    7.2900   47.1010   39.4800 C   0  0  0  0  0  0  0  0  0  0  0  0
    6.8090   47.5470   38.1670 C   0  0  0  0  0  0  0  0  0  0  0  0
    6.3810   48.8730   38.0380 C   0  0  0  0  0  0  0  0  0  0  0  0
    5.9260   49.3080   36.8140 C   0  0  0  0  0  0  0  0  0  0  0  0
    5.8780   48.5080   35.7380 N   0  0  0  0  0  0  0  0  0  0  0  0
    6.2930   47.2330   35.8720 C   0  0  0  0  0  0  0  0  0  0  0  0
    6.7600   46.7180   37.0530 C   0  0  0  0  0  0  0  0  0  0  0  0
  1  6  1  1  0  0  0
  1  2  1  0  0  0  0
  2  5  1  0  0  0  0
  2  4  1  0  0  0  0
  2  3  1  0  0  0  0
  7  6  1  0  0  0  0
  8  7  1  0  0  0  0
  8  9  2  0  0  0  0
 10  9  1  0  0  0  0
 11 10  2  0  0  0  0
 12 13  2  0  0  0  0
 12 11  1  0  0  0  0
 13  8  1  0  0  0  0
 14 13  1  0  0  0  0
 14 16  1  0  0  0  0
 15 14  1  0  0  0  0
 16  7  2  0  0  0  0
 17  1  1  0  0  0  0
 18 17  1  0  0  0  0
 19 24  1  0  0  0  0
 19 18  1  0  0  0  0
 20 19  2  0  0  0  0
 21 22  2  0  0  0  0
 21 20  1  0  0  0  0
 22 23  1  0  0  0  0
 23 24  2  0  0  0  0
 25 21  1  0  0  0  0
 26 25  2  0  0  0  0
 27 26  1  0  0  0  0
 28 27  1  0  0  0  0
 29 28  2  0  0  0  0
 30 31  2  0  0  0  0
 30 29  1  0  0  0  0
 31 32  1  0  0  0  0
 32 27  2  0  0  0  0
M  END
>  <minimizedAffinity>
-8.64108658

$$$$
