
 OpenBabel12271914593D

 25 29  0  0  1  0  0  0  0  0999 V2000
    7.7790   47.1880   45.9610 C   0  0  1  0  0  0  0  0  0  0  0  0
    7.4150   47.4860   44.5400 C   0  0  1  0  0  0  0  0  0  0  0  0
    7.3830   48.8970   44.0050 C   0  0  0  0  0  0  0  0  0  0  0  0
    7.7340   49.9590   44.8450 C   0  0  0  0  0  0  0  0  0  0  0  0
    7.7590   51.2670   44.3020 C   0  0  0  0  0  0  0  0  0  0  0  0
    8.1650   52.3600   44.9640 O   0  0  0  0  0  0  0  0  0  0  0  0
    8.3300   53.3290   43.9300 C   0  0  0  0  0  0  0  0  0  0  0  0
    7.6050   52.8670   42.7660 O   0  0  0  0  0  0  0  0  0  0  0  0
    7.4400   51.5410   43.0350 C   0  0  0  0  0  0  0  0  0  0  0  0
    7.0590   50.5490   42.1710 C   0  0  0  0  0  0  0  0  0  0  0  0
    7.0470   49.2050   42.6380 C   0  0  0  0  0  0  0  0  0  0  0  0
    6.6770   48.2870   41.5150 C   0  0  0  0  0  0  0  0  0  0  0  0
    7.2540   46.8700   41.6890 C   0  0  0  0  0  0  0  0  0  0  0  0
    8.6010   46.9260   42.3720 N   0  0  2  0  0  0  0  0  0  0  0  0
    9.0920   47.8180   42.2010 H   0  0  0  0  0  0  0  0  0  0  0  0
    9.4420   45.7830   41.8750 C   0  0  0  0  0  0  0  0  0  0  0  0
    8.6590   44.6170   42.4400 C   0  0  0  0  0  0  0  0  0  0  0  0
    8.1920   45.1110   43.8190 C   0  0  0  0  0  0  0  0  0  0  0  0
    8.4660   46.6210   43.8170 C   0  0  2  0  0  0  0  0  0  0  0  0
    9.6640   46.9610   44.6540 C   0  0  0  0  0  0  0  0  0  0  0  0
    9.2730   47.2740   45.8870 C   0  0  1  0  0  0  0  0  0  0  0  0
    7.2120   48.0140   46.9460 O   0  0  0  0  0  0  0  0  0  0  0  0
    6.2880   48.1930   46.7200 H   0  0  0  0  0  0  0  0  0  0  0  0
   10.0920   47.6980   46.8750 O   0  0  0  0  0  0  0  0  0  0  0  0
   10.7680   46.7570   47.7150 C   0  0  0  0  0  0  0  0  0  0  0  0
  1 22  1  1  0  0  0
  2 19  1  6  0  0  0
  2  1  1  0  0  0  0
  3  2  1  0  0  0  0
  3  4  2  0  0  0  0
  5  4  1  0  0  0  0
  5  6  1  0  0  0  0
  7  6  1  0  0  0  0
  8  9  1  0  0  0  0
  8  7  1  0  0  0  0
  9  5  2  0  0  0  0
 10 11  2  0  0  0  0
 10  9  1  0  0  0  0
 11  3  1  0  0  0  0
 12 13  1  0  0  0  0
 12 11  1  0  0  0  0
 13 14  1  0  0  0  0
 14 19  1  1  0  0  0
 15 14  1  0  0  0  0
 16 14  1  0  0  0  0
 16 17  1  0  0  0  0
 17 18  1  0  0  0  0
 19 18  1  1  0  0  0
 19 20  1  0  0  0  0
 20 21  1  0  0  0  0
 21  1  1  0  0  0  0
 21 24  1  6  0  0  0
 23 22  1  0  0  0  0
 24 25  1  0  0  0  0
M  END
>  <minimizedAffinity>
-8.71522808

$$$$

 OpenBabel12271914593D

 25 29  0  0  1  0  0  0  0  0999 V2000
    6.9700   46.9460   43.1720 C   0  0  1  0  0  0  0  0  0  0  0  0
    6.7170   47.5160   41.8110 C   0  0  1  0  0  0  0  0  0  0  0  0
    6.7500   49.0020   41.5510 C   0  0  0  0  0  0  0  0  0  0  0  0
    7.0580   49.8770   42.5990 C   0  0  0  0  0  0  0  0  0  0  0  0
    7.1460   51.2610   42.3150 C   0  0  0  0  0  0  0  0  0  0  0  0
    7.5210   52.1980   43.1980 O   0  0  0  0  0  0  0  0  0  0  0  0
    7.7810   53.3380   42.3790 C   0  0  0  0  0  0  0  0  0  0  0  0
    7.1350   53.1250   41.1020 O   0  0  0  0  0  0  0  0  0  0  0  0
    6.9270   51.7780   41.1030 C   0  0  0  0  0  0  0  0  0  0  0  0
    6.5930   50.9760   40.0430 C   0  0  0  0  0  0  0  0  0  0  0  0
    6.5230   49.5710   40.2460 C   0  0  0  0  0  0  0  0  0  0  0  0
    6.2200   48.8900   38.9480 C   0  0  0  0  0  0  0  0  0  0  0  0
    6.7570   47.4480   38.8910 C   0  0  0  0  0  0  0  0  0  0  0  0
    8.0500   47.3340   39.6640 N   0  0  2  0  0  0  0  0  0  0  0  0
    8.5690   48.2260   39.6990 H   0  0  0  0  0  0  0  0  0  0  0  0
    8.9050   46.2780   39.0200 C   0  0  0  0  0  0  0  0  0  0  0  0
    8.0620   45.0510   39.2980 C   0  0  0  0  0  0  0  0  0  0  0  0
    7.5030   45.2940   40.7110 C   0  0  0  0  0  0  0  0  0  0  0  0
    7.8030   46.7680   41.0120 C   0  0  2  0  0  0  0  0  0  0  0  0
    8.9420   46.9070   41.9800 C   0  0  0  0  0  0  0  0  0  0  0  0
    8.4660   46.9970   43.2200 C   0  0  1  0  0  0  0  0  0  0  0  0
    6.3460   47.5910   44.2530 O   0  0  0  0  0  0  0  0  0  0  0  0
    5.4450   47.8370   44.0020 H   0  0  0  0  0  0  0  0  0  0  0  0
    9.2180   47.2030   44.3240 O   0  0  0  0  0  0  0  0  0  0  0  0
    9.7210   48.5070   44.6300 C   0  0  0  0  0  0  0  0  0  0  0  0
  1 21  1  0  0  0  0
  1 22  1  1  0  0  0
  2 19  1  6  0  0  0
  2  1  1  0  0  0  0
  3  2  1  0  0  0  0
  3  4  2  0  0  0  0
  5  4  1  0  0  0  0
  5  6  1  0  0  0  0
  7  6  1  0  0  0  0
  8  9  1  0  0  0  0
  8  7  1  0  0  0  0
  9  5  2  0  0  0  0
 10 11  2  0  0  0  0
 10  9  1  0  0  0  0
 11  3  1  0  0  0  0
 12 11  1  0  0  0  0
 13 12  1  0  0  0  0
 13 14  1  0  0  0  0
 14 15  1  0  0  0  0
 14 19  1  1  0  0  0
 16 17  1  0  0  0  0
 16 14  1  0  0  0  0
 17 18  1  0  0  0  0
 19 18  1  6  0  0  0
 19 20  1  0  0  0  0
 20 21  1  0  0  0  0
 21 24  1  6  0  0  0
 23 22  1  0  0  0  0
 24 25  1  0  0  0  0
M  END
>  <minimizedAffinity>
-8.31117153

$$$$

 OpenBabel12271914593D

 25 29  0  0  1  0  0  0  0  0999 V2000
    9.1000   47.2770   44.5430 C   0  0  1  0  0  0  0  0  0  0  0  0
    8.8980   46.8420   43.1240 C   0  0  1  0  0  0  0  0  0  0  0  0
    8.8340   45.3840   42.7390 C   0  0  0  0  0  0  0  0  0  0  0  0
    8.9330   44.4050   43.7350 C   0  0  0  0  0  0  0  0  0  0  0  0
    8.8050   43.0470   43.3570 C   0  0  0  0  0  0  0  0  0  0  0  0
    8.7860   42.0150   44.2140 O   0  0  0  0  0  0  0  0  0  0  0  0
    8.3070   40.9330   43.4170 C   0  0  0  0  0  0  0  0  0  0  0  0
    8.4740   41.2960   42.0260 O   0  0  0  0  0  0  0  0  0  0  0  0
    8.6200   42.6490   42.0950 C   0  0  0  0  0  0  0  0  0  0  0  0
    8.5450   43.5580   41.0730 C   0  0  0  0  0  0  0  0  0  0  0  0
    8.6270   44.9430   41.3830 C   0  0  0  0  0  0  0  0  0  0  0  0
    8.4460   45.7490   40.1350 C   0  0  0  0  0  0  0  0  0  0  0  0
    7.8690   47.1500   40.4080 C   0  0  0  0  0  0  0  0  0  0  0  0
    6.9100   47.1100   41.5750 N   0  0  2  0  0  0  0  0  0  0  0  0
    6.4680   46.1840   41.6900 H   0  0  0  0  0  0  0  0  0  0  0  0
    5.8490   48.1540   41.3650 C   0  0  0  0  0  0  0  0  0  0  0  0
    6.6910   49.4080   41.4700 C   0  0  0  0  0  0  0  0  0  0  0  0
    7.7040   49.0880   42.5820 C   0  0  0  0  0  0  0  0  0  0  0  0
    7.5780   47.5770   42.8140 C   0  0  2  0  0  0  0  0  0  0  0  0
    6.8410   47.2780   44.0870 C   0  0  0  0  0  0  0  0  0  0  0  0
    7.7120   47.1190   45.0810 C   0  0  1  0  0  0  0  0  0  0  0  0
   10.0770   46.5890   45.2810 O   0  0  0  0  0  0  0  0  0  0  0  0
   10.8490   46.4270   44.7200 H   0  0  0  0  0  0  0  0  0  0  0  0
    7.3870   46.7690   46.3460 O   0  0  0  0  0  0  0  0  0  0  0  0
    6.3270   47.4380   47.0360 C   0  0  0  0  0  0  0  0  0  0  0  0
  1 21  1  0  0  0  0
  1 22  1  1  0  0  0
  2 19  1  1  0  0  0
  2  1  1  0  0  0  0
  3  2  1  0  0  0  0
  3  4  2  0  0  0  0
  5  4  1  0  0  0  0
  5  6  1  0  0  0  0
  7  6  1  0  0  0  0
  8  9  1  0  0  0  0
  8  7  1  0  0  0  0
  9  5  2  0  0  0  0
 10 11  2  0  0  0  0
 10  9  1  0  0  0  0
 11  3  1  0  0  0  0
 12 13  1  0  0  0  0
 12 11  1  0  0  0  0
 13 14  1  0  0  0  0
 14 15  1  0  0  0  0
 14 19  1  1  0  0  0
 16 17  1  0  0  0  0
 16 14  1  0  0  0  0
 17 18  1  0  0  0  0
 19 18  1  6  0  0  0
 19 20  1  0  0  0  0
 20 21  1  0  0  0  0
 21 24  1  6  0  0  0
 23 22  1  0  0  0  0
 24 25  1  0  0  0  0
M  END
>  <minimizedAffinity>
-8.18426704

$$$$

 OpenBabel12271914593D

 25 29  0  0  1  0  0  0  0  0999 V2000
    6.5190   47.3350   41.6780 C   0  0  1  0  0  0  0  0  0  0  0  0
    6.2940   48.5510   40.8330 C   0  0  1  0  0  0  0  0  0  0  0  0
    6.5640   49.9420   41.3520 C   0  0  0  0  0  0  0  0  0  0  0  0
    7.0720   50.1080   42.6450 C   0  0  0  0  0  0  0  0  0  0  0  0
    7.3790   51.4180   43.0850 C   0  0  0  0  0  0  0  0  0  0  0  0
    7.9560   51.7130   44.2590 O   0  0  0  0  0  0  0  0  0  0  0  0
    8.3600   53.0720   44.0960 C   0  0  0  0  0  0  0  0  0  0  0  0
    7.6190   53.6260   42.9830 O   0  0  0  0  0  0  0  0  0  0  0  0
    7.1850   52.5080   42.3370 C   0  0  0  0  0  0  0  0  0  0  0  0
    6.6630   52.4140   41.0740 C   0  0  0  0  0  0  0  0  0  0  0  0
    6.3670   51.1250   40.5520 C   0  0  0  0  0  0  0  0  0  0  0  0
    5.8830   51.2530   39.1410 C   0  0  0  0  0  0  0  0  0  0  0  0
    6.1630   49.9960   38.2990 C   0  0  0  0  0  0  0  0  0  0  0  0
    7.4580   49.3470   38.7280 N   0  0  2  0  0  0  0  0  0  0  0  0
    8.1210   50.0240   39.1370 H   0  0  0  0  0  0  0  0  0  0  0  0
    8.0850   48.6830   37.5340 C   0  0  0  0  0  0  0  0  0  0  0  0
    7.0620   47.5980   37.2700 C   0  0  0  0  0  0  0  0  0  0  0  0
    6.6290   47.1410   38.6740 C   0  0  0  0  0  0  0  0  0  0  0  0
    7.1920   48.2000   39.6310 C   0  0  2  0  0  0  0  0  0  0  0  0
    8.3880   47.6850   40.3760 C   0  0  0  0  0  0  0  0  0  0  0  0
    8.0030   47.1770   41.5440 C   0  0  1  0  0  0  0  0  0  0  0  0
    6.0740   47.3980   43.0090 O   0  0  0  0  0  0  0  0  0  0  0  0
    5.2150   47.8440   43.0380 H   0  0  0  0  0  0  0  0  0  0  0  0
    8.8370   46.6930   42.4910 O   0  0  0  0  0  0  0  0  0  0  0  0
    9.2240   45.3150   42.4850 C   0  0  0  0  0  0  0  0  0  0  0  0
  1 22  1  1  0  0  0
  2 19  1  6  0  0  0
  2  3  1  0  0  0  0
  2  1  1  0  0  0  0
  3  4  2  0  0  0  0
  4  5  1  0  0  0  0
  5  6  1  0  0  0  0
  7  6  1  0  0  0  0
  8  7  1  0  0  0  0
  9  8  1  0  0  0  0
  9  5  2  0  0  0  0
 10  9  1  0  0  0  0
 11 10  2  0  0  0  0
 11  3  1  0  0  0  0
 12 11  1  0  0  0  0
 13 14  1  0  0  0  0
 13 12  1  0  0  0  0
 14 15  1  0  0  0  0
 14 19  1  1  0  0  0
 16 14  1  0  0  0  0
 17 16  1  0  0  0  0
 17 18  1  0  0  0  0
 19 18  1  6  0  0  0
 19 20  1  0  0  0  0
 20 21  1  0  0  0  0
 21  1  1  0  0  0  0
 21 24  1  1  0  0  0
 22 23  1  0  0  0  0
 25 24  1  0  0  0  0
M  END
>  <minimizedAffinity>
-8.02000904

$$$$

 OpenBabel12271914593D

 25 29  0  0  1  0  0  0  0  0999 V2000
    9.6390   45.3030   42.8490 C   0  0  1  0  0  0  0  0  0  0  0  0
    8.9780   46.6420   42.9720 C   0  0  1  0  0  0  0  0  0  0  0  0
    8.2950   47.3030   41.8000 C   0  0  0  0  0  0  0  0  0  0  0  0
    8.2430   46.6390   40.5690 C   0  0  0  0  0  0  0  0  0  0  0  0
    7.5410   47.2510   39.5040 C   0  0  0  0  0  0  0  0  0  0  0  0
    7.3330   46.6890   38.3040 O   0  0  0  0  0  0  0  0  0  0  0  0
    6.3220   47.5120   37.7240 C   0  0  0  0  0  0  0  0  0  0  0  0
    6.2960   48.7640   38.4510 O   0  0  0  0  0  0  0  0  0  0  0  0
    6.9440   48.4420   39.6050 C   0  0  0  0  0  0  0  0  0  0  0  0
    6.9850   49.1550   40.7750 C   0  0  0  0  0  0  0  0  0  0  0  0
    7.6420   48.5840   41.8990 C   0  0  0  0  0  0  0  0  0  0  0  0
    7.4980   49.4930   43.0800 C   0  0  0  0  0  0  0  0  0  0  0  0
    7.5580   48.7420   44.4220 C   0  0  0  0  0  0  0  0  0  0  0  0
    6.9400   47.3690   44.2890 N   0  0  2  0  0  0  0  0  0  0  0  0
    6.2240   47.3300   43.5460 H   0  0  0  0  0  0  0  0  0  0  0  0
    6.3230   46.9880   45.6060 C   0  0  0  0  0  0  0  0  0  0  0  0
    7.5700   46.8790   46.4580 C   0  0  0  0  0  0  0  0  0  0  0  0
    8.6130   46.2520   45.5170 C   0  0  0  0  0  0  0  0  0  0  0  0
    7.9920   46.3380   44.1170 C   0  0  2  0  0  0  0  0  0  0  0  0
    7.5010   44.9980   43.6530 C   0  0  0  0  0  0  0  0  0  0  0  0
    8.4490   44.3990   42.9370 C   0  0  1  0  0  0  0  0  0  0  0  0
   10.4300   45.0910   41.7070 O   0  0  0  0  0  0  0  0  0  0  0  0
   10.9400   45.8920   41.5180 H   0  0  0  0  0  0  0  0  0  0  0  0
    8.3090   43.2090   42.3090 O   0  0  0  0  0  0  0  0  0  0  0  0
    7.3790   43.0590   41.2320 C   0  0  0  0  0  0  0  0  0  0  0  0
  1 22  1  6  0  0  0
  1 21  1  0  0  0  0
  1  2  1  0  0  0  0
  2 19  1  1  0  0  0
  3 11  1  0  0  0  0
  3  2  1  0  0  0  0
  4  3  2  0  0  0  0
  5  9  2  0  0  0  0
  5  4  1  0  0  0  0
  6  5  1  0  0  0  0
  7  6  1  0  0  0  0
  7  8  1  0  0  0  0
  8  9  1  0  0  0  0
  9 10  1  0  0  0  0
 10 11  2  0  0  0  0
 11 12  1  0  0  0  0
 12 13  1  0  0  0  0
 14 19  1  6  0  0  0
 14 13  1  0  0  0  0
 14 16  1  0  0  0  0
 15 14  1  0  0  0  0
 16 17  1  0  0  0  0
 18 17  1  0  0  0  0
 19 20  1  6  0  0  0
 19 18  1  0  0  0  0
 21 24  1  6  0  0  0
 21 20  1  0  0  0  0
 23 22  1  0  0  0  0
 25 24  1  0  0  0  0
M  END
>  <minimizedAffinity>
-7.80883884

$$$$

 OpenBabel12271914593D

 25 29  0  0  1  0  0  0  0  0999 V2000
    8.6020   47.1390   43.2700 C   0  0  1  0  0  0  0  0  0  0  0  0
    8.4540   47.1140   41.7800 C   0  0  1  0  0  0  0  0  0  0  0  0
    8.2890   45.8230   41.0170 C   0  0  0  0  0  0  0  0  0  0  0  0
    8.2390   44.6120   41.7170 C   0  0  0  0  0  0  0  0  0  0  0  0
    8.0190   43.4210   40.9850 C   0  0  0  0  0  0  0  0  0  0  0  0
    7.8560   42.2080   41.5330 O   0  0  0  0  0  0  0  0  0  0  0  0
    7.3380   41.4260   40.4570 C   0  0  0  0  0  0  0  0  0  0  0  0
    7.6230   42.1240   39.2220 O   0  0  0  0  0  0  0  0  0  0  0  0
    7.8810   43.3900   39.6560 C   0  0  0  0  0  0  0  0  0  0  0  0
    7.9500   44.5380   38.9120 C   0  0  0  0  0  0  0  0  0  0  0  0
    8.1320   45.7770   39.5850 C   0  0  0  0  0  0  0  0  0  0  0  0
    8.1010   46.8970   38.5920 C   0  0  0  0  0  0  0  0  0  0  0  0
    7.6310   48.2270   39.2080 C   0  0  0  0  0  0  0  0  0  0  0  0
    6.6000   47.9780   40.2840 N   0  0  2  0  0  0  0  0  0  0  0  0
    6.0730   47.1040   40.1300 H   0  0  0  0  0  0  0  0  0  0  0  0
    5.6480   49.1410   40.3210 C   0  0  0  0  0  0  0  0  0  0  0  0
    6.5870   50.2330   40.7900 C   0  0  0  0  0  0  0  0  0  0  0  0
    7.4950   49.5320   41.8140 C   0  0  0  0  0  0  0  0  0  0  0  0
    7.2250   48.0330   41.6280 C   0  0  2  0  0  0  0  0  0  0  0  0
    6.3850   47.4860   42.7450 C   0  0  0  0  0  0  0  0  0  0  0  0
    7.1740   46.9840   43.6930 C   0  0  1  0  0  0  0  0  0  0  0  0
    9.4670   46.1860   43.8350 O   0  0  0  0  0  0  0  0  0  0  0  0
   10.2560   46.1010   43.2810 H   0  0  0  0  0  0  0  0  0  0  0  0
    6.7400   46.3490   44.8040 O   0  0  0  0  0  0  0  0  0  0  0  0
    6.6200   47.0520   46.0450 C   0  0  0  0  0  0  0  0  0  0  0  0
  1 21  1  0  0  0  0
  1 22  1  1  0  0  0
  2 19  1  1  0  0  0
  2  1  1  0  0  0  0
  3  4  2  0  0  0  0
  3  2  1  0  0  0  0
  5  6  1  0  0  0  0
  5  4  1  0  0  0  0
  7  6  1  0  0  0  0
  8  9  1  0  0  0  0
  8  7  1  0  0  0  0
  9  5  2  0  0  0  0
 10 11  2  0  0  0  0
 10  9  1  0  0  0  0
 11  3  1  0  0  0  0
 12 13  1  0  0  0  0
 12 11  1  0  0  0  0
 13 14  1  0  0  0  0
 14 16  1  0  0  0  0
 14 19  1  1  0  0  0
 15 14  1  0  0  0  0
 16 17  1  0  0  0  0
 17 18  1  0  0  0  0
 19 18  1  1  0  0  0
 19 20  1  0  0  0  0
 20 21  1  0  0  0  0
 21 24  1  6  0  0  0
 23 22  1  0  0  0  0
 24 25  1  0  0  0  0
M  END
>  <minimizedAffinity>
-7.38372087

$$$$

 OpenBabel12271914593D

 25 29  0  0  1  0  0  0  0  0999 V2000
    6.5280   47.6970   43.3070 C   0  0  1  0  0  0  0  0  0  0  0  0
    7.2370   46.4610   43.7680 C   0  0  1  0  0  0  0  0  0  0  0  0
    7.6700   45.3850   42.8030 C   0  0  0  0  0  0  0  0  0  0  0  0
    7.4370   45.5550   41.4330 C   0  0  0  0  0  0  0  0  0  0  0  0
    7.9110   44.5620   40.5420 C   0  0  0  0  0  0  0  0  0  0  0  0
    7.8400   44.6400   39.2050 O   0  0  0  0  0  0  0  0  0  0  0  0
    8.7250   43.6100   38.7670 C   0  0  0  0  0  0  0  0  0  0  0  0
    8.9420   42.7070   39.8770 O   0  0  0  0  0  0  0  0  0  0  0  0
    8.5480   43.4590   40.9440 C   0  0  0  0  0  0  0  0  0  0  0  0
    8.7800   43.2210   42.2730 C   0  0  0  0  0  0  0  0  0  0  0  0
    8.3650   44.1940   43.2230 C   0  0  0  0  0  0  0  0  0  0  0  0
    8.7840   43.7680   44.5950 C   0  0  0  0  0  0  0  0  0  0  0  0
    8.9930   44.9560   45.5510 C   0  0  0  0  0  0  0  0  0  0  0  0
    9.5300   46.1530   44.7990 N   0  0  2  0  0  0  0  0  0  0  0  0
   10.0680   45.8820   43.9610 H   0  0  0  0  0  0  0  0  0  0  0  0
   10.4050   46.9520   45.7250 C   0  0  0  0  0  0  0  0  0  0  0  0
    9.3670   47.4280   46.7200 C   0  0  0  0  0  0  0  0  0  0  0  0
    8.1290   47.7260   45.8570 C   0  0  0  0  0  0  0  0  0  0  0  0
    8.4370   47.1060   44.4880 C   0  0  2  0  0  0  0  0  0  0  0  0
    8.7790   48.1590   43.4750 C   0  0  0  0  0  0  0  0  0  0  0  0
    7.6830   48.5080   42.8060 C   0  0  1  0  0  0  0  0  0  0  0  0
    5.5040   47.5230   42.3600 O   0  0  0  0  0  0  0  0  0  0  0  0
    4.9880   46.7370   42.5880 H   0  0  0  0  0  0  0  0  0  0  0  0
    7.6510   49.3800   41.7740 O   0  0  0  0  0  0  0  0  0  0  0  0
    7.0230   50.6580   41.9190 C   0  0  0  0  0  0  0  0  0  0  0  0
  1 22  1  6  0  0  0
  1  2  1  0  0  0  0
  2 19  1  6  0  0  0
  3 11  1  0  0  0  0
  3  2  1  0  0  0  0
  4  3  2  0  0  0  0
  5  9  2  0  0  0  0
  5  4  1  0  0  0  0
  6  5  1  0  0  0  0
  7  6  1  0  0  0  0
  7  8  1  0  0  0  0
  8  9  1  0  0  0  0
  9 10  1  0  0  0  0
 10 11  2  0  0  0  0
 11 12  1  0  0  0  0
 12 13  1  0  0  0  0
 14 19  1  6  0  0  0
 14 13  1  0  0  0  0
 14 16  1  0  0  0  0
 15 14  1  0  0  0  0
 16 17  1  0  0  0  0
 18 17  1  0  0  0  0
 19 20  1  6  0  0  0
 19 18  1  0  0  0  0
 21 24  1  6  0  0  0
 21  1  1  0  0  0  0
 21 20  1  0  0  0  0
 22 23  1  0  0  0  0
 24 25  1  0  0  0  0
M  END
>  <minimizedAffinity>
-6.80953741

$$$$

 OpenBabel12271914593D

 25 29  0  0  1  0  0  0  0  0999 V2000
    9.9210   49.1290   43.5790 C   0  0  1  0  0  0  0  0  0  0  0  0
    9.3710   47.7380   43.6400 C   0  0  1  0  0  0  0  0  0  0  0  0
    9.3080   46.9620   44.9330 C   0  0  0  0  0  0  0  0  0  0  0  0
    9.7430   47.5650   46.1190 C   0  0  0  0  0  0  0  0  0  0  0  0
    9.6150   46.8410   47.3280 C   0  0  0  0  0  0  0  0  0  0  0  0
    9.9030   47.3290   48.5440 O   0  0  0  0  0  0  0  0  0  0  0  0
    9.3030   46.3840   49.4290 C   0  0  0  0  0  0  0  0  0  0  0  0
    9.0580   45.1680   48.6840 O   0  0  0  0  0  0  0  0  0  0  0  0
    9.1210   45.6010   47.3930 C   0  0  0  0  0  0  0  0  0  0  0  0
    8.7060   44.9460   46.2640 C   0  0  0  0  0  0  0  0  0  0  0  0
    8.7720   45.6270   45.0170 C   0  0  0  0  0  0  0  0  0  0  0  0
    8.2010   44.7590   43.9400 C   0  0  0  0  0  0  0  0  0  0  0  0
    7.6220   45.5680   42.7650 C   0  0  0  0  0  0  0  0  0  0  0  0
    7.0230   46.8650   43.2590 N   0  0  2  0  0  0  0  0  0  0  0  0
    6.6960   46.8000   44.2360 H   0  0  0  0  0  0  0  0  0  0  0  0
    5.8740   47.2370   42.3650 C   0  0  0  0  0  0  0  0  0  0  0  0
    6.6210   47.5070   41.0760 C   0  0  0  0  0  0  0  0  0  0  0  0
    7.9190   48.1950   41.5320 C   0  0  0  0  0  0  0  0  0  0  0  0
    7.9690   47.9880   43.0510 C   0  0  2  0  0  0  0  0  0  0  0  0
    7.6290   49.2510   43.7870 C   0  0  0  0  0  0  0  0  0  0  0  0
    8.7460   49.9130   44.0790 C   0  0  1  0  0  0  0  0  0  0  0  0
   11.1080   49.3720   44.2900 O   0  0  0  0  0  0  0  0  0  0  0  0
   11.7070   48.6200   44.1790 H   0  0  0  0  0  0  0  0  0  0  0  0
    8.8030   51.0540   44.8010 O   0  0  0  0  0  0  0  0  0  0  0  0
    7.6240   51.8320   45.0280 C   0  0  0  0  0  0  0  0  0  0  0  0
  1  2  1  0  0  0  0
  1 21  1  0  0  0  0
  1 22  1  1  0  0  0
  2 19  1  1  0  0  0
  2  3  1  0  0  0  0
  3 11  2  0  0  0  0
  3  4  1  0  0  0  0
  4  5  2  0  0  0  0
  5  9  1  0  0  0  0
  5  6  1  0  0  0  0
  6  7  1  0  0  0  0
  8  7  1  0  0  0  0
  9  8  1  0  0  0  0
 10  9  2  0  0  0  0
 11 10  1  0  0  0  0
 12 11  1  0  0  0  0
 13 14  1  0  0  0  0
 13 12  1  0  0  0  0
 14 19  1  6  0  0  0
 14 15  1  0  0  0  0
 16 14  1  0  0  0  0
 17 18  1  0  0  0  0
 17 16  1  0  0  0  0
 19 18  1  6  0  0  0
 19 20  1  0  0  0  0
 20 21  1  0  0  0  0
 21 24  1  1  0  0  0
 23 22  1  0  0  0  0
 24 25  1  0  0  0  0
M  END
>  <minimizedAffinity>
-6.78317213

$$$$

 OpenBabel12271914593D

 25 29  0  0  1  0  0  0  0  0999 V2000
   10.1040   47.7570   44.8990 C   0  0  1  0  0  0  0  0  0  0  0  0
    9.8740   46.3460   45.3440 C   0  0  1  0  0  0  0  0  0  0  0  0
    9.4960   46.0110   46.7660 C   0  0  0  0  0  0  0  0  0  0  0  0
    9.3190   47.0460   47.6920 C   0  0  0  0  0  0  0  0  0  0  0  0
    8.9010   46.7110   49.0030 C   0  0  0  0  0  0  0  0  0  0  0  0
    8.6040   47.6020   49.9600 O   0  0  0  0  0  0  0  0  0  0  0  0
    7.9280   46.8190   50.9420 C   0  0  0  0  0  0  0  0  0  0  0  0
    8.2390   45.4270   50.6940 O   0  0  0  0  0  0  0  0  0  0  0  0
    8.6890   45.4560   49.4080 C   0  0  0  0  0  0  0  0  0  0  0  0
    8.8740   44.3980   48.5570 C   0  0  0  0  0  0  0  0  0  0  0  0
    9.2580   44.6620   47.2130 C   0  0  0  0  0  0  0  0  0  0  0  0
    9.3270   43.3770   46.4490 C   0  0  0  0  0  0  0  0  0  0  0  0
    9.0750   43.5660   44.9420 C   0  0  0  0  0  0  0  0  0  0  0  0
    8.0780   44.6770   44.7060 N   0  0  2  0  0  0  0  0  0  0  0  0
    7.4300   44.8000   45.5000 H   0  0  0  0  0  0  0  0  0  0  0  0
    7.2970   44.3680   43.4590 C   0  0  0  0  0  0  0  0  0  0  0  0
    8.3980   44.4760   42.4260 C   0  0  0  0  0  0  0  0  0  0  0  0
    9.2560   45.6550   42.9140 C   0  0  0  0  0  0  0  0  0  0  0  0
    8.7760   45.9350   44.3440 C   0  0  2  0  0  0  0  0  0  0  0  0
    7.9300   47.1730   44.4050 C   0  0  0  0  0  0  0  0  0  0  0  0
    8.6920   48.2200   44.7100 C   0  0  1  0  0  0  0  0  0  0  0  0
   10.8600   48.5750   45.7540 O   0  0  0  0  0  0  0  0  0  0  0  0
   11.6000   48.0650   46.1140 H   0  0  0  0  0  0  0  0  0  0  0  0
    8.2360   49.4760   44.9150 O   0  0  0  0  0  0  0  0  0  0  0  0
    8.3000   50.4530   43.8710 C   0  0  0  0  0  0  0  0  0  0  0  0
  1  2  1  0  0  0  0
  1 22  1  1  0  0  0
  2 19  1  6  0  0  0
  2  3  1  0  0  0  0
  3 11  2  0  0  0  0
  3  4  1  0  0  0  0
  4  5  2  0  0  0  0
  5  9  1  0  0  0  0
  5  6  1  0  0  0  0
  6  7  1  0  0  0  0
  8  7  1  0  0  0  0
  9  8  1  0  0  0  0
 10  9  2  0  0  0  0
 11 10  1  0  0  0  0
 12 11  1  0  0  0  0
 13 12  1  0  0  0  0
 14 19  1  6  0  0  0
 14 13  1  0  0  0  0
 14 15  1  0  0  0  0
 16 14  1  0  0  0  0
 17 18  1  0  0  0  0
 17 16  1  0  0  0  0
 19 18  1  6  0  0  0
 19 20  1  0  0  0  0
 20 21  1  0  0  0  0
 21  1  1  0  0  0  0
 21 24  1  1  0  0  0
 22 23  1  0  0  0  0
 25 24  1  0  0  0  0
M  END
>  <minimizedAffinity>
-6.40376616

$$$$
