
 OpenBabel12271915043D

 25 29  0  0  1  0  0  0  0  0999 V2000
    9.6740   48.4830   45.3560 C   0  0  1  0  0  0  0  0  0  0  0  0
    8.4070   48.0630   44.5630 C   0  0  1  0  0  0  0  0  0  0  0  0
    7.9400   49.1100   43.5940 C   0  0  0  0  0  0  0  0  0  0  0  0
    8.0030   50.4290   44.0840 C   0  0  0  0  0  0  0  0  0  0  0  0
    7.5950   51.4690   43.2690 C   0  0  0  0  0  0  0  0  0  0  0  0
    7.6260   52.8040   43.5640 O   0  0  0  0  0  0  0  0  0  0  0  0
    6.8870   53.3950   42.4650 C   0  0  0  0  0  0  0  0  0  0  0  0
    6.7900   52.4320   41.3920 O   0  0  0  0  0  0  0  0  0  0  0  0
    7.1140   51.2660   42.0260 C   0  0  0  0  0  0  0  0  0  0  0  0
    7.0100   49.9860   41.5240 C   0  0  0  0  0  0  0  0  0  0  0  0
    7.4120   48.8990   42.3150 C   0  0  0  0  0  0  0  0  0  0  0  0
    7.2520   47.5720   41.6460 C   0  0  0  0  0  0  0  0  0  0  0  0
    8.5950   46.9020   41.5570 C   0  0  0  0  0  0  0  0  0  0  0  0
    9.1070   46.2710   42.7900 N   0  0  2  0  0  0  0  0  0  0  0  0
   10.1320   46.4370   42.7720 H   0  0  0  0  0  0  0  0  0  0  0  0
    8.9300   44.7850   42.7480 C   0  0  0  0  0  0  0  0  0  0  0  0
    7.6390   44.5190   43.5000 C   0  0  0  0  0  0  0  0  0  0  0  0
    7.4310   45.7110   44.4060 C   0  0  0  0  0  0  0  0  0  0  0  0
    8.6320   46.6130   44.1460 C   0  0  2  0  0  0  0  0  0  0  0  0
    9.6990   46.1750   45.1110 C   0  0  0  0  0  0  0  0  0  0  0  0
   10.2570   47.1910   45.7520 C   0  0  2  0  0  0  0  0  0  0  0  0
   10.5870   49.2360   44.5900 O   0  0  0  0  0  0  0  0  0  0  0  0
   10.8840   48.7350   43.8130 H   0  0  0  0  0  0  0  0  0  0  0  0
   11.2330   47.0040   46.7010 O   0  0  0  0  0  0  0  0  0  0  0  0
   10.8120   47.0730   48.0660 C   0  0  0  0  0  0  0  0  0  0  0  0
  1 22  1  6  0  0  0
  1 21  1  0  0  0  0
  2 19  1  6  0  0  0
  2  1  1  0  0  0  0
  3  4  1  0  0  0  0
  3  2  1  0  0  0  0
  5  6  1  0  0  0  0
  5  4  2  0  0  0  0
  7  6  1  0  0  0  0
  8  9  1  0  0  0  0
  8  7  1  0  0  0  0
  9  5  1  0  0  0  0
 10  9  2  0  0  0  0
 10 11  1  0  0  0  0
 11  3  2  0  0  0  0
 12 11  1  0  0  0  0
 13 12  1  0  0  0  0
 13 14  1  0  0  0  0
 14 19  1  1  0  0  0
 15 14  1  0  0  0  0
 16 14  1  0  0  0  0
 16 17  1  0  0  0  0
 17 18  1  0  0  0  0
 19 18  1  1  0  0  0
 19 20  1  0  0  0  0
 20 21  1  0  0  0  0
 21 24  1  1  0  0  0
 23 22  1  0  0  0  0
 24 25  1  0  0  0  0
M  END
>  <minimizedAffinity>
-9.00132084

$$$$

 OpenBabel12271915043D

 25 29  0  0  1  0  0  0  0  0999 V2000
    7.1950   50.3940   43.0240 C   0  0  1  0  0  0  0  0  0  0  0  0
    6.9540   48.8740   42.8260 C   0  0  1  0  0  0  0  0  0  0  0  0
    7.0400   48.4420   41.3910 C   0  0  0  0  0  0  0  0  0  0  0  0
    6.4370   49.3290   40.4760 C   0  0  0  0  0  0  0  0  0  0  0  0
    6.4620   49.0230   39.1280 C   0  0  0  0  0  0  0  0  0  0  0  0
    5.9670   49.7830   38.1050 O   0  0  0  0  0  0  0  0  0  0  0  0
    6.0620   48.8920   36.9650 C   0  0  0  0  0  0  0  0  0  0  0  0
    6.9510   47.8010   37.2930 O   0  0  0  0  0  0  0  0  0  0  0  0
    7.0220   47.8910   38.6540 C   0  0  0  0  0  0  0  0  0  0  0  0
    7.5940   46.9850   39.5230 C   0  0  0  0  0  0  0  0  0  0  0  0
    7.5930   47.2530   40.9000 C   0  0  0  0  0  0  0  0  0  0  0  0
    8.2500   46.1930   41.7230 C   0  0  0  0  0  0  0  0  0  0  0  0
    9.4020   46.7990   42.4750 C   0  0  0  0  0  0  0  0  0  0  0  0
    9.0690   47.5900   43.6770 N   0  0  2  0  0  0  0  0  0  0  0  0
    9.7530   48.3720   43.6830 H   0  0  0  0  0  0  0  0  0  0  0  0
    9.3260   46.8070   44.9270 C   0  0  0  0  0  0  0  0  0  0  0  0
    7.9820   46.2140   45.3050 C   0  0  0  0  0  0  0  0  0  0  0  0
    6.9390   47.0920   44.6520 C   0  0  0  0  0  0  0  0  0  0  0  0
    7.7360   48.1750   43.9320 C   0  0  2  0  0  0  0  0  0  0  0  0
    7.9250   49.2860   44.9280 C   0  0  0  0  0  0  0  0  0  0  0  0
    7.6360   50.4770   44.4250 C   0  0  2  0  0  0  0  0  0  0  0  0
    8.1710   50.9220   42.1540 O   0  0  0  0  0  0  0  0  0  0  0  0
    9.0230   50.4750   42.2780 H   0  0  0  0  0  0  0  0  0  0  0  0
    7.7130   51.6220   45.1800 O   0  0  0  0  0  0  0  0  0  0  0  0
    6.6130   52.5300   45.0700 C   0  0  0  0  0  0  0  0  0  0  0  0
  1 22  1  6  0  0  0
  1 21  1  0  0  0  0
  2  1  1  0  0  0  0
  2 19  1  1  0  0  0
  3  2  1  0  0  0  0
  4  3  2  0  0  0  0
  5  4  1  0  0  0  0
  6  5  1  0  0  0  0
  7  8  1  0  0  0  0
  7  6  1  0  0  0  0
  8  9  1  0  0  0  0
  9  5  2  0  0  0  0
  9 10  1  0  0  0  0
 10 11  2  0  0  0  0
 11  3  1  0  0  0  0
 11 12  1  0  0  0  0
 12 13  1  0  0  0  0
 13 14  1  0  0  0  0
 14 15  1  0  0  0  0
 14 19  1  6  0  0  0
 14 16  1  0  0  0  0
 16 17  1  0  0  0  0
 18 17  1  0  0  0  0
 19 18  1  1  0  0  0
 19 20  1  0  0  0  0
 21 20  1  0  0  0  0
 21 24  1  1  0  0  0
 22 23  1  0  0  0  0
 25 24  1  0  0  0  0
M  END
>  <minimizedAffinity>
-8.32202244

$$$$

 OpenBabel12271915043D

 25 29  0  0  1  0  0  0  0  0999 V2000
    9.2530   48.3870   44.6130 C   0  0  1  0  0  0  0  0  0  0  0  0
    8.2130   47.5050   43.8710 C   0  0  1  0  0  0  0  0  0  0  0  0
    7.7110   48.1230   42.5980 C   0  0  0  0  0  0  0  0  0  0  0  0
    7.4610   49.5080   42.6800 C   0  0  0  0  0  0  0  0  0  0  0  0
    6.9950   50.1740   41.5620 C   0  0  0  0  0  0  0  0  0  0  0  0
    6.7400   51.5130   41.4500 O   0  0  0  0  0  0  0  0  0  0  0  0
    6.0760   51.6100   40.1650 C   0  0  0  0  0  0  0  0  0  0  0  0
    6.3130   50.3940   39.4200 O   0  0  0  0  0  0  0  0  0  0  0  0
    6.7470   49.5420   40.3960 C   0  0  0  0  0  0  0  0  0  0  0  0
    6.9510   48.1830   40.2880 C   0  0  0  0  0  0  0  0  0  0  0  0
    7.4230   47.4650   41.3970 C   0  0  0  0  0  0  0  0  0  0  0  0
    7.6060   46.0040   41.1400 C   0  0  0  0  0  0  0  0  0  0  0  0
    9.0460   45.6410   41.3710 C   0  0  0  0  0  0  0  0  0  0  0  0
    9.4780   45.4940   42.7750 N   0  0  2  0  0  0  0  0  0  0  0  0
   10.4470   45.8660   42.8000 H   0  0  0  0  0  0  0  0  0  0  0  0
    9.5810   44.0500   43.1600 C   0  0  0  0  0  0  0  0  0  0  0  0
    8.2640   43.7270   43.8390 C   0  0  0  0  0  0  0  0  0  0  0  0
    7.7120   45.0460   44.3300 C   0  0  0  0  0  0  0  0  0  0  0  0
    8.7550   46.0810   43.9230 C   0  0  2  0  0  0  0  0  0  0  0  0
    9.7310   46.1620   45.0640 C   0  0  0  0  0  0  0  0  0  0  0  0
    9.9950   47.4100   45.4230 C   0  0  2  0  0  0  0  0  0  0  0  0
   10.1160   49.0830   43.7420 O   0  0  0  0  0  0  0  0  0  0  0  0
   10.6100   48.4670   43.1780 H   0  0  0  0  0  0  0  0  0  0  0  0
   10.8390   47.7020   46.4670 O   0  0  0  0  0  0  0  0  0  0  0  0
   10.7440   46.8550   47.6150 C   0  0  0  0  0  0  0  0  0  0  0  0
  1 22  1  6  0  0  0
  1 21  1  0  0  0  0
  2 19  1  6  0  0  0
  2  1  1  0  0  0  0
  3  4  1  0  0  0  0
  3  2  1  0  0  0  0
  5  4  2  0  0  0  0
  6  5  1  0  0  0  0
  7  6  1  0  0  0  0
  8  7  1  0  0  0  0
  8  9  1  0  0  0  0
  9  5  1  0  0  0  0
 10  9  2  0  0  0  0
 10 11  1  0  0  0  0
 11  3  2  0  0  0  0
 12 13  1  0  0  0  0
 12 11  1  0  0  0  0
 13 14  1  0  0  0  0
 14 15  1  0  0  0  0
 14 16  1  0  0  0  0
 14 19  1  1  0  0  0
 16 17  1  0  0  0  0
 17 18  1  0  0  0  0
 19 18  1  1  0  0  0
 19 20  1  0  0  0  0
 20 21  1  0  0  0  0
 21 24  1  1  0  0  0
 23 22  1  0  0  0  0
 24 25  1  0  0  0  0
M  END
>  <minimizedAffinity>
-8.23069191

$$$$

 OpenBabel12271915043D

 25 29  0  0  1  0  0  0  0  0999 V2000
    8.5120   44.8890   43.5660 C   0  0  1  0  0  0  0  0  0  0  0  0
    8.9710   46.3180   43.9620 C   0  0  1  0  0  0  0  0  0  0  0  0
    8.2470   47.4020   43.2170 C   0  0  0  0  0  0  0  0  0  0  0  0
    8.0410   47.1330   41.8490 C   0  0  0  0  0  0  0  0  0  0  0  0
    7.3820   48.0680   41.0720 C   0  0  0  0  0  0  0  0  0  0  0  0
    7.0620   47.9570   39.7480 O   0  0  0  0  0  0  0  0  0  0  0  0
    6.5980   49.2890   39.4130 C   0  0  0  0  0  0  0  0  0  0  0  0
    6.3110   50.0070   40.6340 O   0  0  0  0  0  0  0  0  0  0  0  0
    6.9510   49.2460   41.5700 C   0  0  0  0  0  0  0  0  0  0  0  0
    7.1620   49.5560   42.8970 C   0  0  0  0  0  0  0  0  0  0  0  0
    7.8250   48.6370   43.7240 C   0  0  0  0  0  0  0  0  0  0  0  0
    7.9820   49.0970   45.1370 C   0  0  0  0  0  0  0  0  0  0  0  0
    7.2940   48.1200   46.0500 C   0  0  0  0  0  0  0  0  0  0  0  0
    8.0080   46.8590   46.3340 N   0  0  2  0  0  0  0  0  0  0  0  0
    7.2660   46.1350   46.3880 H   0  0  0  0  0  0  0  0  0  0  0  0
    8.6480   46.8950   47.6870 C   0  0  0  0  0  0  0  0  0  0  0  0
   10.0860   47.3090   47.4340 C   0  0  0  0  0  0  0  0  0  0  0  0
   10.3780   46.9460   45.9960 C   0  0  0  0  0  0  0  0  0  0  0  0
    9.0870   46.3170   45.4820 C   0  0  2  0  0  0  0  0  0  0  0  0
    9.1900   44.8470   45.7850 C   0  0  0  0  0  0  0  0  0  0  0  0
    8.8720   44.0890   44.7460 C   0  0  2  0  0  0  0  0  0  0  0  0
    7.1300   44.8020   43.2980 O   0  0  0  0  0  0  0  0  0  0  0  0
    6.6090   45.0690   44.0720 H   0  0  0  0  0  0  0  0  0  0  0  0
    8.9310   42.7180   44.8030 O   0  0  0  0  0  0  0  0  0  0  0  0
    9.1150   42.0380   43.5580 C   0  0  0  0  0  0  0  0  0  0  0  0
  1 22  1  1  0  0  0
  1  2  1  0  0  0  0
  1 21  1  0  0  0  0
  2 19  1  1  0  0  0
  3 11  1  0  0  0  0
  3  2  1  0  0  0  0
  4  3  2  0  0  0  0
  5  9  2  0  0  0  0
  5  4  1  0  0  0  0
  6  5  1  0  0  0  0
  7  6  1  0  0  0  0
  7  8  1  0  0  0  0
  8  9  1  0  0  0  0
  9 10  1  0  0  0  0
 10 11  2  0  0  0  0
 11 12  1  0  0  0  0
 12 13  1  0  0  0  0
 13 14  1  0  0  0  0
 14 19  1  6  0  0  0
 14 15  1  0  0  0  0
 14 16  1  0  0  0  0
 17 16  1  0  0  0  0
 18 17  1  0  0  0  0
 19 20  1  1  0  0  0
 19 18  1  0  0  0  0
 21 24  1  6  0  0  0
 21 20  1  0  0  0  0
 22 23  1  0  0  0  0
 25 24  1  0  0  0  0
M  END
>  <minimizedAffinity>
-8.00513458

$$$$

 OpenBabel12271915043D

 25 29  0  0  1  0  0  0  0  0999 V2000
    7.3480   48.1890   40.5050 C   0  0  1  0  0  0  0  0  0  0  0  0
    8.2480   47.8960   41.7360 C   0  0  1  0  0  0  0  0  0  0  0  0
    7.9870   48.8150   42.8940 C   0  0  0  0  0  0  0  0  0  0  0  0
    7.7800   50.1620   42.5360 C   0  0  0  0  0  0  0  0  0  0  0  0
    7.5300   51.0910   43.5290 C   0  0  0  0  0  0  0  0  0  0  0  0
    7.2680   52.4230   43.3620 O   0  0  0  0  0  0  0  0  0  0  0  0
    7.3130   52.9350   44.7170 C   0  0  0  0  0  0  0  0  0  0  0  0
    7.2200   51.8280   45.6420 O   0  0  0  0  0  0  0  0  0  0  0  0
    7.5030   50.7610   44.8370 C   0  0  0  0  0  0  0  0  0  0  0  0
    7.7310   49.4580   45.2270 C   0  0  0  0  0  0  0  0  0  0  0  0
    7.9880   48.4800   44.2530 C   0  0  0  0  0  0  0  0  0  0  0  0
    8.2110   47.1130   44.8130 C   0  0  0  0  0  0  0  0  0  0  0  0
    7.1770   46.1770   44.2500 C   0  0  0  0  0  0  0  0  0  0  0  0
    7.3950   45.6980   42.8700 N   0  0  2  0  0  0  0  0  0  0  0  0
    6.4470   45.6450   42.4500 H   0  0  0  0  0  0  0  0  0  0  0  0
    7.9290   44.2990   42.8630 C   0  0  0  0  0  0  0  0  0  0  0  0
    9.4330   44.4500   42.7350 C   0  0  0  0  0  0  0  0  0  0  0  0
    9.6640   45.8080   42.1130 C   0  0  0  0  0  0  0  0  0  0  0  0
    8.2680   46.3800   41.8920 C   0  0  2  0  0  0  0  0  0  0  0  0
    7.8400   45.9210   40.5250 C   0  0  0  0  0  0  0  0  0  0  0  0
    7.3410   46.9040   39.7900 C   0  0  2  0  0  0  0  0  0  0  0  0
    6.0390   48.5820   40.8530 O   0  0  0  0  0  0  0  0  0  0  0  0
    5.5980   47.8940   41.3770 H   0  0  0  0  0  0  0  0  0  0  0  0
    6.9210   46.7030   38.4980 O   0  0  0  0  0  0  0  0  0  0  0  0
    7.1480   47.7770   37.5820 C   0  0  0  0  0  0  0  0  0  0  0  0
  1 22  1  1  0  0  0
  1  2  1  0  0  0  0
  2 19  1  1  0  0  0
  2  3  1  0  0  0  0
  3 11  1  0  0  0  0
  4  3  2  0  0  0  0
  4  5  1  0  0  0  0
  5  9  2  0  0  0  0
  6  5  1  0  0  0  0
  6  7  1  0  0  0  0
  7  8  1  0  0  0  0
  9 10  1  0  0  0  0
  9  8  1  0  0  0  0
 11 12  1  0  0  0  0
 11 10  2  0  0  0  0
 13 12  1  0  0  0  0
 14 19  1  6  0  0  0
 14 13  1  0  0  0  0
 15 14  1  0  0  0  0
 16 14  1  0  0  0  0
 17 16  1  0  0  0  0
 18 17  1  0  0  0  0
 19 20  1  6  0  0  0
 19 18  1  0  0  0  0
 21 24  1  6  0  0  0
 21  1  1  0  0  0  0
 21 20  1  0  0  0  0
 22 23  1  0  0  0  0
 25 24  1  0  0  0  0
M  END
>  <minimizedAffinity>
-7.9730196

$$$$

 OpenBabel12271915043D

 25 29  0  0  1  0  0  0  0  0999 V2000
    8.6620   45.3690   44.5600 C   0  0  1  0  0  0  0  0  0  0  0  0
    9.0160   46.3930   43.4480 C   0  0  1  0  0  0  0  0  0  0  0  0
    8.6560   45.9210   42.0690 C   0  0  0  0  0  0  0  0  0  0  0  0
    8.9360   44.5620   41.8260 C   0  0  0  0  0  0  0  0  0  0  0  0
    8.6410   44.0270   40.5850 C   0  0  0  0  0  0  0  0  0  0  0  0
    8.8060   42.7280   40.1910 O   0  0  0  0  0  0  0  0  0  0  0  0
    8.5540   42.7890   38.7640 C   0  0  0  0  0  0  0  0  0  0  0  0
    7.8860   44.0330   38.4570 O   0  0  0  0  0  0  0  0  0  0  0  0
    8.1150   44.7660   39.5860 C   0  0  0  0  0  0  0  0  0  0  0  0
    7.8570   46.1060   39.7790 C   0  0  0  0  0  0  0  0  0  0  0  0
    8.1390   46.6930   41.0220 C   0  0  0  0  0  0  0  0  0  0  0  0
    7.8050   48.1480   41.0950 C   0  0  0  0  0  0  0  0  0  0  0  0
    6.7930   48.3650   42.1860 C   0  0  0  0  0  0  0  0  0  0  0  0
    7.3000   48.3650   43.5730 N   0  0  2  0  0  0  0  0  0  0  0  0
    6.5550   47.9080   44.1330 H   0  0  0  0  0  0  0  0  0  0  0  0
    7.4190   49.7600   44.1030 C   0  0  0  0  0  0  0  0  0  0  0  0
    8.8710   50.1440   43.8840 C   0  0  0  0  0  0  0  0  0  0  0  0
    9.6370   48.8450   43.7900 C   0  0  0  0  0  0  0  0  0  0  0  0
    8.5850   47.7570   43.9780 C   0  0  2  0  0  0  0  0  0  0  0  0
    8.5050   47.5040   45.4580 C   0  0  0  0  0  0  0  0  0  0  0  0
    8.5420   46.2130   45.7580 C   0  0  2  0  0  0  0  0  0  0  0  0
    7.4630   44.6700   44.3110 O   0  0  0  0  0  0  0  0  0  0  0  0
    6.7140   45.2820   44.2320 H   0  0  0  0  0  0  0  0  0  0  0  0
    8.5130   45.7690   47.0570 O   0  0  0  0  0  0  0  0  0  0  0  0
    7.7960   46.5820   47.9900 C   0  0  0  0  0  0  0  0  0  0  0  0
  1 22  1  6  0  0  0
  1 21  1  0  0  0  0
  2 19  1  1  0  0  0
  2  1  1  0  0  0  0
  3  2  1  0  0  0  0
  4  3  1  0  0  0  0
  5  4  2  0  0  0  0
  6  5  1  0  0  0  0
  7  6  1  0  0  0  0
  8  7  1  0  0  0  0
  8  9  1  0  0  0  0
  9 10  2  0  0  0  0
  9  5  1  0  0  0  0
 10 11  1  0  0  0  0
 11 12  1  0  0  0  0
 11  3  2  0  0  0  0
 12 13  1  0  0  0  0
 13 14  1  0  0  0  0
 14 19  1  1  0  0  0
 14 16  1  0  0  0  0
 14 15  1  0  0  0  0
 17 16  1  0  0  0  0
 18 17  1  0  0  0  0
 19 18  1  6  0  0  0
 19 20  1  0  0  0  0
 20 21  1  0  0  0  0
 21 24  1  1  0  0  0
 23 22  1  0  0  0  0
 24 25  1  0  0  0  0
M  END
>  <minimizedAffinity>
-7.85858059

$$$$

 OpenBabel12271915043D

 25 29  0  0  1  0  0  0  0  0999 V2000
    8.2830   44.9780   40.3030 C   0  0  1  0  0  0  0  0  0  0  0  0
    8.3520   46.5100   40.5400 C   0  0  1  0  0  0  0  0  0  0  0  0
    7.5790   47.3030   39.5260 C   0  0  0  0  0  0  0  0  0  0  0  0
    7.7020   46.8350   38.2020 C   0  0  0  0  0  0  0  0  0  0  0  0
    7.0290   47.4950   37.1910 C   0  0  0  0  0  0  0  0  0  0  0  0
    7.0010   47.1580   35.8660 O   0  0  0  0  0  0  0  0  0  0  0  0
    6.3470   48.2990   35.2550 C   0  0  0  0  0  0  0  0  0  0  0  0
    5.6870   49.0690   36.2840 O   0  0  0  0  0  0  0  0  0  0  0  0
    6.2750   48.5910   37.4200 C   0  0  0  0  0  0  0  0  0  0  0  0
    6.1570   49.0950   38.6980 C   0  0  0  0  0  0  0  0  0  0  0  0
    6.8220   48.4570   39.7560 C   0  0  0  0  0  0  0  0  0  0  0  0
    6.6030   49.1040   41.0860 C   0  0  0  0  0  0  0  0  0  0  0  0
    5.9670   48.1080   42.0170 C   0  0  0  0  0  0  0  0  0  0  0  0
    6.8570   47.0880   42.6080 N   0  0  2  0  0  0  0  0  0  0  0  0
    6.2840   46.2240   42.6520 H   0  0  0  0  0  0  0  0  0  0  0  0
    7.2010   47.4290   44.0250 C   0  0  0  0  0  0  0  0  0  0  0  0
    8.5440   48.1320   43.9480 C   0  0  0  0  0  0  0  0  0  0  0  0
    9.1770   47.6800   42.6520 C   0  0  0  0  0  0  0  0  0  0  0  0
    8.1690   46.7140   42.0400 C   0  0  2  0  0  0  0  0  0  0  0  0
    8.5120   45.3540   42.5820 C   0  0  0  0  0  0  0  0  0  0  0  0
    8.5650   44.4260   41.6370 C   0  0  2  0  0  0  0  0  0  0  0  0
    7.0280   44.5430   39.8300 O   0  0  0  0  0  0  0  0  0  0  0  0
    6.3230   44.7710   40.4570 H   0  0  0  0  0  0  0  0  0  0  0  0
    8.8930   43.1220   41.9180 O   0  0  0  0  0  0  0  0  0  0  0  0
    7.8470   42.3060   42.4530 C   0  0  0  0  0  0  0  0  0  0  0  0
  1 22  1  1  0  0  0
  1  2  1  0  0  0  0
  1 21  1  0  0  0  0
  2 19  1  1  0  0  0
  3 11  1  0  0  0  0
  3  2  1  0  0  0  0
  4  3  2  0  0  0  0
  5  9  2  0  0  0  0
  5  4  1  0  0  0  0
  6  5  1  0  0  0  0
  7  6  1  0  0  0  0
  7  8  1  0  0  0  0
  8  9  1  0  0  0  0
  9 10  1  0  0  0  0
 10 11  2  0  0  0  0
 11 12  1  0  0  0  0
 12 13  1  0  0  0  0
 13 14  1  0  0  0  0
 14 19  1  6  0  0  0
 14 15  1  0  0  0  0
 14 16  1  0  0  0  0
 17 16  1  0  0  0  0
 18 17  1  0  0  0  0
 19 20  1  1  0  0  0
 19 18  1  0  0  0  0
 21 24  1  6  0  0  0
 21 20  1  0  0  0  0
 22 23  1  0  0  0  0
 24 25  1  0  0  0  0
M  END
>  <minimizedAffinity>
-7.65788889

$$$$

 OpenBabel12271915043D

 25 29  0  0  1  0  0  0  0  0999 V2000
    8.2820   49.2310   44.9040 C   0  0  1  0  0  0  0  0  0  0  0  0
    9.0210   47.9320   44.4830 C   0  0  1  0  0  0  0  0  0  0  0  0
    9.2280   46.9720   45.6180 C   0  0  0  0  0  0  0  0  0  0  0  0
    9.6030   47.5780   46.8340 C   0  0  0  0  0  0  0  0  0  0  0  0
    9.8180   46.7820   47.9440 C   0  0  0  0  0  0  0  0  0  0  0  0
   10.1440   47.2000   49.2040 O   0  0  0  0  0  0  0  0  0  0  0  0
   10.4620   45.9600   49.8850 C   0  0  0  0  0  0  0  0  0  0  0  0
    9.9440   44.8540   49.1130 O   0  0  0  0  0  0  0  0  0  0  0  0
    9.7070   45.4380   47.9010 C   0  0  0  0  0  0  0  0  0  0  0  0
    9.3720   44.8090   46.7210 C   0  0  0  0  0  0  0  0  0  0  0  0
    9.1440   45.5760   45.5690 C   0  0  0  0  0  0  0  0  0  0  0  0
    8.7840   44.7680   44.3640 C   0  0  0  0  0  0  0  0  0  0  0  0
    7.4260   45.1920   43.8770 C   0  0  0  0  0  0  0  0  0  0  0  0
    7.3590   46.4510   43.1090 N   0  0  2  0  0  0  0  0  0  0  0  0
    6.4620   46.8920   43.3910 H   0  0  0  0  0  0  0  0  0  0  0  0
    7.2410   46.1810   41.6400 C   0  0  0  0  0  0  0  0  0  0  0  0
    8.6580   46.2750   41.1060 C   0  0  0  0  0  0  0  0  0  0  0  0
    9.4220   47.1240   42.0960 C   0  0  0  0  0  0  0  0  0  0  0  0
    8.3970   47.5010   43.1600 C   0  0  2  0  0  0  0  0  0  0  0  0
    7.7560   48.7780   42.6890 C   0  0  0  0  0  0  0  0  0  0  0  0
    7.6950   49.6990   43.6390 C   0  0  2  0  0  0  0  0  0  0  0  0
    7.2830   49.0130   45.8750 O   0  0  0  0  0  0  0  0  0  0  0  0
    6.6130   48.3910   45.5500 H   0  0  0  0  0  0  0  0  0  0  0  0
    7.1740   50.9490   43.4060 O   0  0  0  0  0  0  0  0  0  0  0  0
    7.2450   51.4250   42.0600 C   0  0  0  0  0  0  0  0  0  0  0  0
  1 22  1  1  0  0  0
  2 19  1  6  0  0  0
  2  1  1  0  0  0  0
  2  3  1  0  0  0  0
  3  4  1  0  0  0  0
  4  5  2  0  0  0  0
  5  6  1  0  0  0  0
  6  7  1  0  0  0  0
  8  7  1  0  0  0  0
  9  5  1  0  0  0  0
  9  8  1  0  0  0  0
 10  9  2  0  0  0  0
 11  3  2  0  0  0  0
 11 10  1  0  0  0  0
 12 11  1  0  0  0  0
 13 12  1  0  0  0  0
 14 19  1  1  0  0  0
 14 15  1  0  0  0  0
 14 13  1  0  0  0  0
 16 14  1  0  0  0  0
 17 16  1  0  0  0  0
 17 18  1  0  0  0  0
 19 18  1  6  0  0  0
 20 19  1  0  0  0  0
 20 21  1  0  0  0  0
 21 24  1  6  0  0  0
 21  1  1  0  0  0  0
 23 22  1  0  0  0  0
 25 24  1  0  0  0  0
M  END
>  <minimizedAffinity>
-7.51221228

$$$$

 OpenBabel12271915043D

 25 29  0  0  1  0  0  0  0  0999 V2000
    8.8720   45.1100   42.7880 C   0  0  1  0  0  0  0  0  0  0  0  0
    8.4530   45.8050   44.1110 C   0  0  1  0  0  0  0  0  0  0  0  0
    8.9690   45.1090   45.3370 C   0  0  0  0  0  0  0  0  0  0  0  0
    8.9010   43.7020   45.2820 C   0  0  0  0  0  0  0  0  0  0  0  0
    9.3520   42.9650   46.3610 C   0  0  0  0  0  0  0  0  0  0  0  0
    9.3990   41.6020   46.4630 O   0  0  0  0  0  0  0  0  0  0  0  0
    9.7360   41.3930   47.8580 C   0  0  0  0  0  0  0  0  0  0  0  0
   10.2410   42.6290   48.4100 O   0  0  0  0  0  0  0  0  0  0  0  0
    9.8340   43.5440   47.4800 C   0  0  0  0  0  0  0  0  0  0  0  0
    9.8880   44.9180   47.5810 C   0  0  0  0  0  0  0  0  0  0  0  0
    9.4420   45.7070   46.5110 C   0  0  0  0  0  0  0  0  0  0  0  0
    9.5620   47.1770   46.7520 C   0  0  0  0  0  0  0  0  0  0  0  0
   10.4560   47.7750   45.7010 C   0  0  0  0  0  0  0  0  0  0  0  0
    9.8610   47.9950   44.3680 N   0  0  2  0  0  0  0  0  0  0  0  0
   10.6240   47.7890   43.6940 H   0  0  0  0  0  0  0  0  0  0  0  0
    9.5110   49.4370   44.1650 C   0  0  0  0  0  0  0  0  0  0  0  0
    8.0380   49.5390   44.5150 C   0  0  0  0  0  0  0  0  0  0  0  0
    7.4710   48.1480   44.3440 C   0  0  0  0  0  0  0  0  0  0  0  0
    8.6500   47.2990   43.8830 C   0  0  2  0  0  0  0  0  0  0  0  0
    8.6650   47.3850   42.3820 C   0  0  0  0  0  0  0  0  0  0  0  0
    8.7900   46.1990   41.8040 C   0  0  2  0  0  0  0  0  0  0  0  0
   10.1720   44.5650   42.8330 O   0  0  0  0  0  0  0  0  0  0  0  0
   10.8300   45.2530   43.0190 H   0  0  0  0  0  0  0  0  0  0  0  0
    8.7930   46.0540   40.4380 O   0  0  0  0  0  0  0  0  0  0  0  0
    7.9150   46.9140   39.7060 C   0  0  0  0  0  0  0  0  0  0  0  0
  1 22  1  1  0  0  0
  1  2  1  0  0  0  0
  2 19  1  6  0  0  0
  2  3  1  0  0  0  0
  3 11  1  0  0  0  0
  4  3  2  0  0  0  0
  4  5  1  0  0  0  0
  5  6  1  0  0  0  0
  5  9  2  0  0  0  0
  6  7  1  0  0  0  0
  7  8  1  0  0  0  0
  9 10  1  0  0  0  0
  9  8  1  0  0  0  0
 11 12  1  0  0  0  0
 11 10  2  0  0  0  0
 13 12  1  0  0  0  0
 14 19  1  6  0  0  0
 14 13  1  0  0  0  0
 15 14  1  0  0  0  0
 16 14  1  0  0  0  0
 16 17  1  0  0  0  0
 18 17  1  0  0  0  0
 19 20  1  6  0  0  0
 19 18  1  0  0  0  0
 21 24  1  6  0  0  0
 21 20  1  0  0  0  0
 21  1  1  0  0  0  0
 22 23  1  0  0  0  0
 25 24  1  0  0  0  0
M  END
>  <minimizedAffinity>
-7.39638424

$$$$
