
 OpenBabel12271914573D

 37 41  0  0  1  0  0  0  0  0999 V2000
    8.2100   46.5880   44.5360 C   0  0  2  0  0  0  0  0  0  0  0  0
    9.0930   45.6170   45.1100 O   0  0  0  0  0  0  0  0  0  0  0  0
    9.1920   45.3690   46.4360 C   0  0  0  0  0  0  0  0  0  0  0  0
   10.0990   44.7150   46.8690 O   0  0  0  0  0  0  0  0  0  0  0  0
    8.1400   45.9360   47.3040 C   0  0  1  0  0  0  0  0  0  0  0  0
    7.0690   46.6610   46.8580 C   0  0  0  0  0  0  0  0  0  0  0  0
    6.1250   47.1790   47.4920 O   0  0  0  0  0  0  0  0  0  0  0  0
    6.9550   46.8970   45.3330 C   0  0  0  0  0  0  0  0  0  0  0  0
    7.8470   46.0440   43.1200 C   0  0  0  0  0  0  0  0  0  0  0  0
    7.6310   44.5350   43.1030 C   0  0  0  0  0  0  0  0  0  0  0  0
    8.6940   43.9350   42.2080 C   0  0  0  0  0  0  0  0  0  0  0  0
    9.2190   45.0720   41.3490 C   0  0  0  0  0  0  0  0  0  0  0  0
    8.9970   46.3300   42.1420 C   0  0  0  0  0  0  0  0  0  0  0  0
    8.3310   45.6160   48.7750 C   0  0  0  0  0  0  0  0  0  0  0  0
    9.2470   46.5650   49.6080 C   0  0  0  0  0  0  0  0  0  0  0  0
   10.3620   47.2110   49.0140 N   0  0  0  0  0  0  0  0  0  0  0  0
   10.8690   47.8930   50.0590 C   0  0  0  0  0  0  0  0  0  0  0  0
   11.9800   48.7200   50.1180 N   0  0  0  0  0  0  0  0  0  0  0  0
   12.3430   49.2550   51.2760 C   0  0  0  0  0  0  0  0  0  0  0  0
   13.5520   50.1470   51.3910 C   0  0  0  0  0  0  0  0  0  0  0  0
   11.5550   48.9680   52.5040 C   0  0  0  0  0  0  0  0  0  0  0  0
   10.4860   48.1660   52.4030 C   0  0  0  0  0  0  0  0  0  0  0  0
    9.6460   47.8200   53.5990 C   0  0  0  0  0  0  0  0  0  0  0  0
   10.1320   47.6230   51.1840 N   0  0  0  0  0  0  0  0  0  0  0  0
    9.1430   46.7270   50.8750 N   0  0  0  0  0  0  0  0  0  0  0  0
    8.9640   47.9080   44.2280 C   0  0  0  0  0  0  0  0  0  0  0  0
    8.3400   49.1140   44.8910 C   0  0  0  0  0  0  0  0  0  0  0  0
    7.4460   52.2280   43.0670 C   0  0  0  0  0  0  0  0  0  0  0  0
    6.9510   51.7760   41.8620 N   0  0  0  0  0  0  0  0  0  0  0  0
    6.9230   50.4370   41.6660 C   0  0  0  0  0  0  0  0  0  0  0  0
    7.3500   49.5640   42.6140 C   0  0  0  0  0  0  0  0  0  0  0  0
    7.8750   50.0250   43.8400 C   0  0  0  0  0  0  0  0  0  0  0  0
    7.8930   51.4100   44.0200 C   0  0  0  0  0  0  0  0  0  0  0  0
    8.3780   54.0400   44.4530 C   0  0  0  0  0  0  0  0  0  0  0  0
    7.5130   53.7410   43.2400 C   0  0  0  0  0  0  0  0  0  0  0  0
    6.3540   49.9360   40.3480 C   0  0  0  0  0  0  0  0  0  0  0  0
    6.3110   48.4140   40.3400 C   0  0  0  0  0  0  0  0  0  0  0  0
  1 26  1  6  0  0  0
  1  2  1  0  0  0  0
  1  8  1  0  0  0  0
  2  3  1  0  0  0  0
  3  4  2  0  0  0  0
  3  5  1  0  0  0  0
  5 14  1  6  0  0  0
  6  5  1  0  0  0  0
  6  7  2  0  0  0  0
  8  6  1  0  0  0  0
  9  1  1  0  0  0  0
 10  9  1  0  0  0  0
 11 10  1  0  0  0  0
 12 13  1  0  0  0  0
 12 11  1  0  0  0  0
 13  9  1  0  0  0  0
 14 15  1  0  0  0  0
 15 25  2  0  0  0  0
 16 15  2  0  0  0  0
 16 17  2  0  0  0  0
 17 18  2  0  0  0  0
 17 24  1  0  0  0  0
 18 19  2  0  0  0  0
 19 20  1  0  0  0  0
 19 21  1  0  0  0  0
 22 21  2  0  0  0  0
 22 23  1  0  0  0  0
 24 22  1  0  0  0  0
 25 24  1  0  0  0  0
 26 27  1  0  0  0  0
 28 35  1  0  0  0  0
 28 33  1  0  0  0  0
 29 28  2  0  0  0  0
 30 29  2  0  0  0  0
 30 31  1  0  0  0  0
 31 32  1  0  0  0  0
 32 33  2  0  0  0  0
 32 27  1  0  0  0  0
 35 34  1  0  0  0  0
 36 30  1  0  0  0  0
 37 36  1  0  0  0  0
M  END
>  <minimizedAffinity>
-10.6717548

$$$$

 OpenBabel12271914573D

 37 41  0  0  1  0  0  0  0  0999 V2000
    8.0390   49.1660   44.1520 C   0  0  2  0  0  0  0  0  0  0  0  0
    7.3250   48.3890   45.1210 O   0  0  0  0  0  0  0  0  0  0  0  0
    7.9070   47.5100   45.9690 C   0  0  0  0  0  0  0  0  0  0  0  0
    7.2420   46.7320   46.5940 O   0  0  0  0  0  0  0  0  0  0  0  0
    9.3790   47.5620   46.0830 C   0  0  1  0  0  0  0  0  0  0  0  0
   10.1800   48.4500   45.4190 C   0  0  0  0  0  0  0  0  0  0  0  0
   11.4210   48.5900   45.4410 O   0  0  0  0  0  0  0  0  0  0  0  0
    9.4890   49.4720   44.4850 C   0  0  0  0  0  0  0  0  0  0  0  0
    7.2200   50.4820   43.9810 C   0  0  0  0  0  0  0  0  0  0  0  0
    7.9940   51.5700   43.2460 C   0  0  0  0  0  0  0  0  0  0  0  0
    8.1760   52.7260   44.2060 C   0  0  0  0  0  0  0  0  0  0  0  0
    7.1420   52.5340   45.3020 C   0  0  0  0  0  0  0  0  0  0  0  0
    6.8650   51.0580   45.3610 C   0  0  0  0  0  0  0  0  0  0  0  0
    9.9480   46.5400   47.0500 C   0  0  0  0  0  0  0  0  0  0  0  0
   10.1670   46.9890   48.5280 C   0  0  0  0  0  0  0  0  0  0  0  0
    9.2430   46.6350   49.5440 N   0  0  0  0  0  0  0  0  0  0  0  0
    9.7870   47.2260   50.6250 C   0  0  0  0  0  0  0  0  0  0  0  0
    9.3400   47.2520   51.9370 N   0  0  0  0  0  0  0  0  0  0  0  0
   10.0050   47.9500   52.8470 C   0  0  0  0  0  0  0  0  0  0  0  0
    9.5480   48.0190   54.2810 C   0  0  0  0  0  0  0  0  0  0  0  0
   11.2280   48.7000   52.4560 C   0  0  0  0  0  0  0  0  0  0  0  0
   11.6280   48.6470   51.1780 C   0  0  0  0  0  0  0  0  0  0  0  0
   12.8470   49.3860   50.7040 C   0  0  0  0  0  0  0  0  0  0  0  0
   10.9150   47.9120   50.2520 N   0  0  0  0  0  0  0  0  0  0  0  0
   11.0960   47.7900   48.9010 N   0  0  0  0  0  0  0  0  0  0  0  0
    7.9580   48.5100   42.7490 C   0  0  0  0  0  0  0  0  0  0  0  0
    6.5390   48.3080   42.2720 C   0  0  0  0  0  0  0  0  0  0  0  0
    6.4810   48.2980   38.5540 C   0  0  0  0  0  0  0  0  0  0  0  0
    6.3360   49.6280   38.2200 N   0  0  0  0  0  0  0  0  0  0  0  0
    6.2540   50.5170   39.2380 C   0  0  0  0  0  0  0  0  0  0  0  0
    6.3240   50.1290   40.5380 C   0  0  0  0  0  0  0  0  0  0  0  0
    6.4540   48.7660   40.8810 C   0  0  0  0  0  0  0  0  0  0  0  0
    6.5360   47.8680   39.8140 C   0  0  0  0  0  0  0  0  0  0  0  0
    6.5000   48.1130   36.0960 C   0  0  0  0  0  0  0  0  0  0  0  0
    6.5190   47.3140   37.3890 C   0  0  0  0  0  0  0  0  0  0  0  0
    6.1200   51.9860   38.8730 C   0  0  0  0  0  0  0  0  0  0  0  0
    6.9340   52.8430   39.8330 C   0  0  0  0  0  0  0  0  0  0  0  0
  1 26  1  6  0  0  0
  1  8  1  0  0  0  0
  1  2  1  0  0  0  0
  2  3  1  0  0  0  0
  3  5  1  0  0  0  0
  3  4  2  0  0  0  0
  5 14  1  1  0  0  0
  6  7  2  0  0  0  0
  6  5  1  0  0  0  0
  8  6  1  0  0  0  0
  9  1  1  0  0  0  0
  9 13  1  0  0  0  0
 10  9  1  0  0  0  0
 10 11  1  0  0  0  0
 11 12  1  0  0  0  0
 12 13  1  0  0  0  0
 14 15  1  0  0  0  0
 15 25  2  0  0  0  0
 15 16  2  0  0  0  0
 16 17  2  0  0  0  0
 17 18  2  0  0  0  0
 18 19  2  0  0  0  0
 19 20  1  0  0  0  0
 21 19  1  0  0  0  0
 22 21  2  0  0  0  0
 23 22  1  0  0  0  0
 24 17  1  0  0  0  0
 24 22  1  0  0  0  0
 25 24  1  0  0  0  0
 27 26  1  0  0  0  0
 28 33  1  0  0  0  0
 29 28  2  0  0  0  0
 29 30  2  0  0  0  0
 30 31  1  0  0  0  0
 31 32  1  0  0  0  0
 32 27  1  0  0  0  0
 33 32  2  0  0  0  0
 34 35  1  0  0  0  0
 35 28  1  0  0  0  0
 36 30  1  0  0  0  0
 36 37  1  0  0  0  0
M  END
>  <minimizedAffinity>
-10.6361341

$$$$

 OpenBabel12271914573D

 37 41  0  0  1  0  0  0  0  0999 V2000
    8.1950   46.5400   44.5810 C   0  0  2  0  0  0  0  0  0  0  0  0
    9.0770   45.5680   45.1550 O   0  0  0  0  0  0  0  0  0  0  0  0
    9.1850   45.3290   46.4820 C   0  0  0  0  0  0  0  0  0  0  0  0
   10.0920   44.6720   46.9130 O   0  0  0  0  0  0  0  0  0  0  0  0
    8.1450   45.9100   47.3550 C   0  0  1  0  0  0  0  0  0  0  0  0
    7.0750   46.6390   46.9130 C   0  0  0  0  0  0  0  0  0  0  0  0
    6.1400   47.1680   47.5500 O   0  0  0  0  0  0  0  0  0  0  0  0
    6.9500   46.8640   45.3870 C   0  0  0  0  0  0  0  0  0  0  0  0
    7.8170   45.9880   43.1730 C   0  0  0  0  0  0  0  0  0  0  0  0
    7.5830   44.4810   43.1710 C   0  0  0  0  0  0  0  0  0  0  0  0
    8.6330   43.8610   42.2740 C   0  0  0  0  0  0  0  0  0  0  0  0
    9.1650   44.9840   41.4020 C   0  0  0  0  0  0  0  0  0  0  0  0
    8.9640   46.2510   42.1850 C   0  0  0  0  0  0  0  0  0  0  0  0
    8.3460   45.5990   48.8270 C   0  0  0  0  0  0  0  0  0  0  0  0
    9.2640   46.5570   49.6480 C   0  0  0  0  0  0  0  0  0  0  0  0
   10.3670   47.2120   49.0410 N   0  0  0  0  0  0  0  0  0  0  0  0
   10.8800   47.8990   50.0790 C   0  0  0  0  0  0  0  0  0  0  0  0
   11.9850   48.7350   50.1250 N   0  0  0  0  0  0  0  0  0  0  0  0
   12.3560   49.2750   51.2780 C   0  0  0  0  0  0  0  0  0  0  0  0
   13.5590   50.1760   51.3790 C   0  0  0  0  0  0  0  0  0  0  0  0
   11.5840   48.9830   52.5150 C   0  0  0  0  0  0  0  0  0  0  0  0
   10.5200   48.1730   52.4270 C   0  0  0  0  0  0  0  0  0  0  0  0
    9.6960   47.8220   53.6320 C   0  0  0  0  0  0  0  0  0  0  0  0
   10.1570   47.6250   51.2120 N   0  0  0  0  0  0  0  0  0  0  0  0
    9.1730   46.7210   50.9160 N   0  0  0  0  0  0  0  0  0  0  0  0
    8.9560   47.8530   44.2570 C   0  0  0  0  0  0  0  0  0  0  0  0
    8.3710   49.0610   44.9490 C   0  0  0  0  0  0  0  0  0  0  0  0
    6.9170   50.3560   41.7810 C   0  0  0  0  0  0  0  0  0  0  0  0
    6.9620   51.7260   41.9310 N   0  0  0  0  0  0  0  0  0  0  0  0
    7.4720   52.2070   43.0880 C   0  0  0  0  0  0  0  0  0  0  0  0
    7.9370   51.3850   44.0640 C   0  0  0  0  0  0  0  0  0  0  0  0
    7.8750   49.9820   43.9210 C   0  0  0  0  0  0  0  0  0  0  0  0
    7.3440   49.5100   42.7180 C   0  0  0  0  0  0  0  0  0  0  0  0
    6.2600   48.3230   40.5510 C   0  0  0  0  0  0  0  0  0  0  0  0
    6.2910   49.8420   40.4900 C   0  0  0  0  0  0  0  0  0  0  0  0
    7.5470   53.7170   43.2450 C   0  0  0  0  0  0  0  0  0  0  0  0
    8.4260   54.0800   44.4340 C   0  0  0  0  0  0  0  0  0  0  0  0
  1 26  1  6  0  0  0
  1  2  1  0  0  0  0
  1  8  1  0  0  0  0
  2  3  1  0  0  0  0
  3  4  2  0  0  0  0
  3  5  1  0  0  0  0
  5 14  1  6  0  0  0
  6  5  1  0  0  0  0
  6  7  2  0  0  0  0
  8  6  1  0  0  0  0
  9  1  1  0  0  0  0
 10  9  1  0  0  0  0
 11 10  1  0  0  0  0
 12 13  1  0  0  0  0
 12 11  1  0  0  0  0
 13  9  1  0  0  0  0
 14 15  1  0  0  0  0
 15 25  2  0  0  0  0
 16 15  2  0  0  0  0
 16 17  2  0  0  0  0
 17 18  2  0  0  0  0
 17 24  1  0  0  0  0
 18 19  2  0  0  0  0
 19 20  1  0  0  0  0
 19 21  1  0  0  0  0
 22 21  2  0  0  0  0
 22 23  1  0  0  0  0
 24 22  1  0  0  0  0
 25 24  1  0  0  0  0
 26 27  1  0  0  0  0
 28 29  2  0  0  0  0
 28 33  1  0  0  0  0
 29 30  2  0  0  0  0
 30 36  1  0  0  0  0
 30 31  1  0  0  0  0
 32 31  1  0  0  0  0
 32 27  1  0  0  0  0
 33 32  2  0  0  0  0
 35 34  1  0  0  0  0
 35 28  1  0  0  0  0
 36 37  1  0  0  0  0
M  END
>  <minimizedAffinity>
-10.6102066

$$$$

 OpenBabel12271914573D

 37 41  0  0  1  0  0  0  0  0999 V2000
    8.0230   49.1600   44.1410 C   0  0  2  0  0  0  0  0  0  0  0  0
    7.2960   48.3770   45.0950 O   0  0  0  0  0  0  0  0  0  0  0  0
    7.8680   47.4980   45.9510 C   0  0  0  0  0  0  0  0  0  0  0  0
    7.1950   46.7150   46.5610 O   0  0  0  0  0  0  0  0  0  0  0  0
    9.3370   47.5550   46.0890 C   0  0  1  0  0  0  0  0  0  0  0  0
   10.1460   48.4480   45.4410 C   0  0  0  0  0  0  0  0  0  0  0  0
   11.3860   48.5930   45.4840 O   0  0  0  0  0  0  0  0  0  0  0  0
    9.4660   49.4710   44.4990 C   0  0  0  0  0  0  0  0  0  0  0  0
    7.2020   50.4740   43.9610 C   0  0  0  0  0  0  0  0  0  0  0  0
    7.9530   51.5370   43.1670 C   0  0  0  0  0  0  0  0  0  0  0  0
    8.1710   52.7200   44.0860 C   0  0  0  0  0  0  0  0  0  0  0  0
    7.1760   52.5640   45.2230 C   0  0  0  0  0  0  0  0  0  0  0  0
    6.8980   51.0910   45.3350 C   0  0  0  0  0  0  0  0  0  0  0  0
    9.8950   46.5320   47.0610 C   0  0  0  0  0  0  0  0  0  0  0  0
   10.1220   46.9880   48.5360 C   0  0  0  0  0  0  0  0  0  0  0  0
    9.1930   46.6560   49.5560 N   0  0  0  0  0  0  0  0  0  0  0  0
    9.7480   47.2460   50.6320 C   0  0  0  0  0  0  0  0  0  0  0  0
    9.3030   47.2880   51.9440 N   0  0  0  0  0  0  0  0  0  0  0  0
    9.9790   47.9820   52.8490 C   0  0  0  0  0  0  0  0  0  0  0  0
    9.5250   48.0680   54.2820 C   0  0  0  0  0  0  0  0  0  0  0  0
   11.2140   48.7110   52.4510 C   0  0  0  0  0  0  0  0  0  0  0  0
   11.6120   48.6420   51.1740 C   0  0  0  0  0  0  0  0  0  0  0  0
   12.8410   49.3590   50.6930 C   0  0  0  0  0  0  0  0  0  0  0  0
   10.8860   47.9110   50.2540 N   0  0  0  0  0  0  0  0  0  0  0  0
   11.0640   47.7770   48.9030 N   0  0  0  0  0  0  0  0  0  0  0  0
    7.9690   48.5090   42.7350 C   0  0  0  0  0  0  0  0  0  0  0  0
    6.5590   48.3110   42.2300 C   0  0  0  0  0  0  0  0  0  0  0  0
    6.2220   50.3730   39.1550 C   0  0  0  0  0  0  0  0  0  0  0  0
    6.3950   49.4690   38.1270 N   0  0  0  0  0  0  0  0  0  0  0  0
    6.6280   48.1810   38.4690 C   0  0  0  0  0  0  0  0  0  0  0  0
    6.6770   47.7790   39.7660 C   0  0  0  0  0  0  0  0  0  0  0  0
    6.5180   48.7060   40.8180 C   0  0  0  0  0  0  0  0  0  0  0  0
    6.2790   50.0290   40.4410 C   0  0  0  0  0  0  0  0  0  0  0  0
    6.7970   52.7070   39.7000 C   0  0  0  0  0  0  0  0  0  0  0  0
    6.0130   51.8260   38.7410 C   0  0  0  0  0  0  0  0  0  0  0  0
    6.7940   47.1770   37.3390 C   0  0  0  0  0  0  0  0  0  0  0  0
    7.4410   45.9010   37.8600 C   0  0  0  0  0  0  0  0  0  0  0  0
  1 26  1  6  0  0  0
  1  8  1  0  0  0  0
  1  2  1  0  0  0  0
  2  3  1  0  0  0  0
  3  5  1  0  0  0  0
  3  4  2  0  0  0  0
  5 14  1  1  0  0  0
  6  7  2  0  0  0  0
  6  5  1  0  0  0  0
  8  6  1  0  0  0  0
  9  1  1  0  0  0  0
  9 13  1  0  0  0  0
 10  9  1  0  0  0  0
 10 11  1  0  0  0  0
 11 12  1  0  0  0  0
 12 13  1  0  0  0  0
 14 15  1  0  0  0  0
 15 25  2  0  0  0  0
 15 16  2  0  0  0  0
 16 17  2  0  0  0  0
 17 18  2  0  0  0  0
 18 19  2  0  0  0  0
 19 20  1  0  0  0  0
 21 19  1  0  0  0  0
 22 21  2  0  0  0  0
 23 22  1  0  0  0  0
 24 17  1  0  0  0  0
 24 22  1  0  0  0  0
 25 24  1  0  0  0  0
 27 26  1  0  0  0  0
 28 33  1  0  0  0  0
 29 30  2  0  0  0  0
 29 28  2  0  0  0  0
 30 31  1  0  0  0  0
 31 32  1  0  0  0  0
 32 27  1  0  0  0  0
 33 32  2  0  0  0  0
 35 28  1  0  0  0  0
 35 34  1  0  0  0  0
 36 37  1  0  0  0  0
 36 30  1  0  0  0  0
M  END
>  <minimizedAffinity>
-10.600421

$$$$

 OpenBabel12271914573D

 37 41  0  0  1  0  0  0  0  0999 V2000
    8.7340   46.5610   44.0720 C   0  0  2  0  0  0  0  0  0  0  0  0
    9.8270   47.4090   44.4460 O   0  0  0  0  0  0  0  0  0  0  0  0
   10.4080   47.4060   45.6670 C   0  0  0  0  0  0  0  0  0  0  0  0
   11.1590   48.2850   45.9880 O   0  0  0  0  0  0  0  0  0  0  0  0
   10.0760   46.2820   46.5660 C   0  0  1  0  0  0  0  0  0  0  0  0
    9.2530   45.2400   46.2370 C   0  0  0  0  0  0  0  0  0  0  0  0
    8.9080   44.2430   46.9060 O   0  0  0  0  0  0  0  0  0  0  0  0
    8.6310   45.2430   44.8210 C   0  0  0  0  0  0  0  0  0  0  0  0
    8.8930   46.3180   42.5400 C   0  0  0  0  0  0  0  0  0  0  0  0
    7.5580   46.1270   41.8290 C   0  0  0  0  0  0  0  0  0  0  0  0
    7.5410   44.7240   41.2620 C   0  0  0  0  0  0  0  0  0  0  0  0
    8.9890   44.2660   41.2200 C   0  0  0  0  0  0  0  0  0  0  0  0
    9.7010   45.0320   42.2980 C   0  0  0  0  0  0  0  0  0  0  0  0
   10.7650   46.3610   47.9150 C   0  0  0  0  0  0  0  0  0  0  0  0
    9.9480   46.9420   49.1110 C   0  0  0  0  0  0  0  0  0  0  0  0
    8.5350   47.0490   49.0470 N   0  0  0  0  0  0  0  0  0  0  0  0
    8.2500   47.6020   50.2410 C   0  0  0  0  0  0  0  0  0  0  0  0
    7.0240   47.9640   50.7770 N   0  0  0  0  0  0  0  0  0  0  0  0
    6.9700   48.5560   51.9620 C   0  0  0  0  0  0  0  0  0  0  0  0
    5.6620   48.9800   52.5760 C   0  0  0  0  0  0  0  0  0  0  0  0
    8.2260   48.8260   52.7120 C   0  0  0  0  0  0  0  0  0  0  0  0
    9.3900   48.4570   52.1610 C   0  0  0  0  0  0  0  0  0  0  0  0
   10.7010   48.7050   52.8500 C   0  0  0  0  0  0  0  0  0  0  0  0
    9.4150   47.8430   50.9240 N   0  0  0  0  0  0  0  0  0  0  0  0
   10.4810   47.4660   50.1520 N   0  0  0  0  0  0  0  0  0  0  0  0
    7.3850   47.3200   44.1750 C   0  0  0  0  0  0  0  0  0  0  0  0
    7.5230   48.6880   44.8000 C   0  0  0  0  0  0  0  0  0  0  0  0
    6.8070   50.2520   41.5030 C   0  0  0  0  0  0  0  0  0  0  0  0
    7.0630   51.5910   41.7080 N   0  0  0  0  0  0  0  0  0  0  0  0
    7.4690   51.9620   42.9450 C   0  0  0  0  0  0  0  0  0  0  0  0
    7.6330   51.0610   43.9470 C   0  0  0  0  0  0  0  0  0  0  0  0
    7.3530   49.6930   43.7440 C   0  0  0  0  0  0  0  0  0  0  0  0
    6.9360   49.3340   42.4610 C   0  0  0  0  0  0  0  0  0  0  0  0
    6.1550   51.1430   39.2990 C   0  0  0  0  0  0  0  0  0  0  0  0
    6.3030   49.8690   40.1160 C   0  0  0  0  0  0  0  0  0  0  0  0
    7.7770   53.4340   43.1660 C   0  0  0  0  0  0  0  0  0  0  0  0
    7.7280   54.1870   41.8440 C   0  0  0  0  0  0  0  0  0  0  0  0
  1 26  1  1  0  0  0
  1  2  1  0  0  0  0
  1  8  1  0  0  0  0
  2  3  1  0  0  0  0
  3  4  2  0  0  0  0
  3  5  1  0  0  0  0
  5 14  1  6  0  0  0
  6  5  1  0  0  0  0
  6  7  2  0  0  0  0
  8  6  1  0  0  0  0
  9  1  1  0  0  0  0
 10  9  1  0  0  0  0
 11 10  1  0  0  0  0
 12 11  1  0  0  0  0
 12 13  1  0  0  0  0
 13  9  1  0  0  0  0
 14 15  1  0  0  0  0
 15 25  2  0  0  0  0
 16 15  2  0  0  0  0
 16 17  2  0  0  0  0
 17 18  2  0  0  0  0
 17 24  1  0  0  0  0
 18 19  2  0  0  0  0
 19 20  1  0  0  0  0
 19 21  1  0  0  0  0
 22 21  2  0  0  0  0
 22 23  1  0  0  0  0
 24 22  1  0  0  0  0
 25 24  1  0  0  0  0
 26 27  1  0  0  0  0
 28 29  2  0  0  0  0
 28 33  1  0  0  0  0
 29 30  2  0  0  0  0
 30 36  1  0  0  0  0
 30 31  1  0  0  0  0
 32 31  1  0  0  0  0
 32 27  1  0  0  0  0
 33 32  2  0  0  0  0
 34 35  1  0  0  0  0
 35 28  1  0  0  0  0
 37 36  1  0  0  0  0
M  END
>  <minimizedAffinity>
-10.4311638

$$$$

 OpenBabel12271914573D

 37 41  0  0  1  0  0  0  0  0999 V2000
    9.0960   46.7930   45.0680 C   0  0  2  0  0  0  0  0  0  0  0  0
   10.2800   46.6790   45.8660 O   0  0  0  0  0  0  0  0  0  0  0  0
   10.3190   46.8830   47.2030 C   0  0  0  0  0  0  0  0  0  0  0  0
   11.3670   46.9950   47.7750 O   0  0  0  0  0  0  0  0  0  0  0  0
    9.0220   46.9580   47.9070 C   0  0  1  0  0  0  0  0  0  0  0  0
    7.8010   46.8060   47.3090 C   0  0  0  0  0  0  0  0  0  0  0  0
    6.6530   46.8430   47.7990 O   0  0  0  0  0  0  0  0  0  0  0  0
    7.7840   46.5330   45.7860 C   0  0  0  0  0  0  0  0  0  0  0  0
    9.2880   45.7960   43.8850 C   0  0  0  0  0  0  0  0  0  0  0  0
    8.9990   46.4250   42.5270 C   0  0  0  0  0  0  0  0  0  0  0  0
    7.8150   45.6950   41.9300 C   0  0  0  0  0  0  0  0  0  0  0  0
    7.7060   44.3780   42.6790 C   0  0  0  0  0  0  0  0  0  0  0  0
    8.3110   44.6170   44.0340 C   0  0  0  0  0  0  0  0  0  0  0  0
    9.1560   47.1950   49.4000 C   0  0  0  0  0  0  0  0  0  0  0  0
    8.9360   45.9750   50.3470 C   0  0  0  0  0  0  0  0  0  0  0  0
    8.8260   44.6590   49.8300 N   0  0  0  0  0  0  0  0  0  0  0  0
    8.6270   43.9410   50.9530 C   0  0  0  0  0  0  0  0  0  0  0  0
    8.4370   42.5770   51.1070 N   0  0  0  0  0  0  0  0  0  0  0  0
    8.1980   42.0760   52.3110 C   0  0  0  0  0  0  0  0  0  0  0  0
    7.9700   40.6020   52.5240 C   0  0  0  0  0  0  0  0  0  0  0  0
    8.1380   42.9800   53.4900 C   0  0  0  0  0  0  0  0  0  0  0  0
    8.3300   44.2920   53.2990 C   0  0  0  0  0  0  0  0  0  0  0  0
    8.2740   45.2700   54.4370 C   0  0  0  0  0  0  0  0  0  0  0  0
    8.5770   44.7850   52.0330 N   0  0  0  0  0  0  0  0  0  0  0  0
    8.7170   46.0790   51.6060 N   0  0  0  0  0  0  0  0  0  0  0  0
    9.0350   48.1740   44.3640 C   0  0  0  0  0  0  0  0  0  0  0  0
    7.8400   48.9980   44.7830 C   0  0  0  0  0  0  0  0  0  0  0  0
    7.3720   52.1800   42.9180 C   0  0  0  0  0  0  0  0  0  0  0  0
    6.9280   51.7760   41.6760 N   0  0  0  0  0  0  0  0  0  0  0  0
    6.7930   50.4450   41.4700 C   0  0  0  0  0  0  0  0  0  0  0  0
    7.0670   49.5360   42.4420 C   0  0  0  0  0  0  0  0  0  0  0  0
    7.5390   49.9480   43.7060 C   0  0  0  0  0  0  0  0  0  0  0  0
    7.6700   51.3260   43.8960 C   0  0  0  0  0  0  0  0  0  0  0  0
    8.2940   53.9040   44.4190 C   0  0  0  0  0  0  0  0  0  0  0  0
    7.5630   53.6820   43.1050 C   0  0  0  0  0  0  0  0  0  0  0  0
    6.2800   49.9970   40.1110 C   0  0  0  0  0  0  0  0  0  0  0  0
    6.2810   51.1660   39.1370 C   0  0  0  0  0  0  0  0  0  0  0  0
  1 26  1  6  0  0  0
  1  8  1  0  0  0  0
  1  2  1  0  0  0  0
  2  3  1  0  0  0  0
  3  4  2  0  0  0  0
  3  5  1  0  0  0  0
  5 14  1  1  0  0  0
  6  7  2  0  0  0  0
  6  5  1  0  0  0  0
  8  6  1  0  0  0  0
  9 13  1  0  0  0  0
  9  1  1  0  0  0  0
 10  9  1  0  0  0  0
 11 10  1  0  0  0  0
 11 12  1  0  0  0  0
 12 13  1  0  0  0  0
 14 15  1  0  0  0  0
 15 25  2  0  0  0  0
 16 15  2  0  0  0  0
 16 17  2  0  0  0  0
 17 18  2  0  0  0  0
 17 24  1  0  0  0  0
 18 19  2  0  0  0  0
 19 20  1  0  0  0  0
 19 21  1  0  0  0  0
 22 21  2  0  0  0  0
 22 23  1  0  0  0  0
 24 22  1  0  0  0  0
 25 24  1  0  0  0  0
 26 27  1  0  0  0  0
 28 35  1  0  0  0  0
 28 33  1  0  0  0  0
 29 28  2  0  0  0  0
 30 29  2  0  0  0  0
 30 31  1  0  0  0  0
 31 32  1  0  0  0  0
 32 33  2  0  0  0  0
 32 27  1  0  0  0  0
 35 34  1  0  0  0  0
 36 30  1  0  0  0  0
 37 36  1  0  0  0  0
M  END
>  <minimizedAffinity>
-10.2509279

$$$$

 OpenBabel12271914573D

 37 41  0  0  1  0  0  0  0  0999 V2000
    7.9570   48.9250   44.1470 C   0  0  2  0  0  0  0  0  0  0  0  0
    7.2600   48.1970   45.1650 O   0  0  0  0  0  0  0  0  0  0  0  0
    7.8590   47.3760   46.0580 C   0  0  0  0  0  0  0  0  0  0  0  0
    7.2080   46.6270   46.7320 O   0  0  0  0  0  0  0  0  0  0  0  0
    9.3310   47.4510   46.1560 C   0  0  1  0  0  0  0  0  0  0  0  0
   10.1170   48.3080   45.4350 C   0  0  0  0  0  0  0  0  0  0  0  0
   11.3560   48.4630   45.4390 O   0  0  0  0  0  0  0  0  0  0  0  0
    9.4060   49.2660   44.4500 C   0  0  0  0  0  0  0  0  0  0  0  0
    7.1220   50.2190   43.9070 C   0  0  0  0  0  0  0  0  0  0  0  0
    7.0980   50.6460   42.4430 C   0  0  0  0  0  0  0  0  0  0  0  0
    7.7730   51.9980   42.3530 C   0  0  0  0  0  0  0  0  0  0  0  0
    7.7680   52.5700   43.7600 C   0  0  0  0  0  0  0  0  0  0  0  0
    7.7380   51.3900   44.6900 C   0  0  0  0  0  0  0  0  0  0  0  0
    9.9200   46.4930   47.1750 C   0  0  0  0  0  0  0  0  0  0  0  0
   10.1360   47.0260   48.6260 C   0  0  0  0  0  0  0  0  0  0  0  0
    9.1620   46.8150   49.6360 N   0  0  0  0  0  0  0  0  0  0  0  0
    9.7240   47.4380   50.6900 C   0  0  0  0  0  0  0  0  0  0  0  0
    9.2470   47.5880   51.9830 N   0  0  0  0  0  0  0  0  0  0  0  0
    9.9410   48.2960   52.8630 C   0  0  0  0  0  0  0  0  0  0  0  0
    9.4560   48.4990   54.2750 C   0  0  0  0  0  0  0  0  0  0  0  0
   11.2280   48.9230   52.4590 C   0  0  0  0  0  0  0  0  0  0  0  0
   11.6550   48.7510   51.2000 C   0  0  0  0  0  0  0  0  0  0  0  0
   12.9380   49.3610   50.7140 C   0  0  0  0  0  0  0  0  0  0  0  0
   10.9100   48.0090   50.3060 N   0  0  0  0  0  0  0  0  0  0  0  0
   11.1140   47.7790   48.9710 N   0  0  0  0  0  0  0  0  0  0  0  0
    7.8740   48.1880   42.7850 C   0  0  0  0  0  0  0  0  0  0  0  0
    9.1930   47.5920   42.3540 C   0  0  0  0  0  0  0  0  0  0  0  0
    8.5780   44.3120   40.7120 C   0  0  0  0  0  0  0  0  0  0  0  0
    8.5870   43.4110   41.7560 N   0  0  0  0  0  0  0  0  0  0  0  0
    8.8020   43.9040   42.9980 C   0  0  0  0  0  0  0  0  0  0  0  0
    8.9900   45.2310   43.2220 C   0  0  0  0  0  0  0  0  0  0  0  0
    9.0000   46.1510   42.1520 C   0  0  0  0  0  0  0  0  0  0  0  0
    8.7760   45.6200   40.8810 C   0  0  0  0  0  0  0  0  0  0  0  0
    8.6050   44.8320   38.3020 C   0  0  0  0  0  0  0  0  0  0  0  0
    8.3850   43.7230   39.3190 C   0  0  0  0  0  0  0  0  0  0  0  0
    8.7870   42.9170   44.1540 C   0  0  0  0  0  0  0  0  0  0  0  0
    9.1540   41.5240   43.6610 C   0  0  0  0  0  0  0  0  0  0  0  0
  1 26  1  6  0  0  0
  1  8  1  0  0  0  0
  1  2  1  0  0  0  0
  2  3  1  0  0  0  0
  3  5  1  0  0  0  0
  3  4  2  0  0  0  0
  5 14  1  1  0  0  0
  6  7  2  0  0  0  0
  6  5  1  0  0  0  0
  8  6  1  0  0  0  0
  9  1  1  0  0  0  0
  9 13  1  0  0  0  0
 10  9  1  0  0  0  0
 11 10  1  0  0  0  0
 11 12  1  0  0  0  0
 12 13  1  0  0  0  0
 14 15  1  0  0  0  0
 15 25  2  0  0  0  0
 15 16  2  0  0  0  0
 16 17  2  0  0  0  0
 17 18  2  0  0  0  0
 18 19  2  0  0  0  0
 19 20  1  0  0  0  0
 21 19  1  0  0  0  0
 22 21  2  0  0  0  0
 23 22  1  0  0  0  0
 24 17  1  0  0  0  0
 24 22  1  0  0  0  0
 25 24  1  0  0  0  0
 27 26  1  0  0  0  0
 28 33  1  0  0  0  0
 28 29  2  0  0  0  0
 29 30  2  0  0  0  0
 30 31  1  0  0  0  0
 30 36  1  0  0  0  0
 32 27  1  0  0  0  0
 32 31  1  0  0  0  0
 33 32  2  0  0  0  0
 34 35  1  0  0  0  0
 35 28  1  0  0  0  0
 37 36  1  0  0  0  0
M  END
>  <minimizedAffinity>
-10.2464285

$$$$

 OpenBabel12271914573D

 37 41  0  0  1  0  0  0  0  0999 V2000
    8.1890   47.2150   44.6910 C   0  0  2  0  0  0  0  0  0  0  0  0
    9.5630   47.1400   45.0870 O   0  0  0  0  0  0  0  0  0  0  0  0
    9.9880   47.1850   46.3700 C   0  0  0  0  0  0  0  0  0  0  0  0
   11.1500   47.3450   46.6240 O   0  0  0  0  0  0  0  0  0  0  0  0
    8.9630   47.0270   47.4220 C   0  0  0  0  0  0  0  0  0  0  0  0
    7.6330   46.8110   47.1870 C   0  0  0  0  0  0  0  0  0  0  0  0
    6.6860   46.6590   47.9870 O   0  0  0  0  0  0  0  0  0  0  0  0
    7.1770   46.7230   45.7110 C   0  0  0  0  0  0  0  0  0  0  0  0
    8.0850   46.3960   43.3680 C   0  0  0  0  0  0  0  0  0  0  0  0
    7.5980   44.9690   43.5920 C   0  0  0  0  0  0  0  0  0  0  0  0
    8.7130   44.0360   43.1690 C   0  0  0  0  0  0  0  0  0  0  0  0
    9.6370   44.8540   42.2830 C   0  0  0  0  0  0  0  0  0  0  0  0
    9.4730   46.2840   42.7150 C   0  0  0  0  0  0  0  0  0  0  0  0
    9.5240   47.0960   48.8300 C   0  0  0  0  0  0  0  0  0  0  0  0
    8.5090   47.2430   50.0060 C   0  0  0  0  0  0  0  0  0  0  0  0
    7.8210   48.4640   50.2290 N   0  0  0  0  0  0  0  0  0  0  0  0
    7.0880   48.1670   51.3200 C   0  0  0  0  0  0  0  0  0  0  0  0
    6.2040   48.9620   52.0320 N   0  0  0  0  0  0  0  0  0  0  0  0
    5.6230   48.4870   53.1250 C   0  0  0  0  0  0  0  0  0  0  0  0
    4.6680   49.3190   53.9400 C   0  0  0  0  0  0  0  0  0  0  0  0
    5.9200   47.1010   53.5780 C   0  0  0  0  0  0  0  0  0  0  0  0
    6.7770   46.3650   52.8590 C   0  0  0  0  0  0  0  0  0  0  0  0
    7.1370   44.9620   53.2580 C   0  0  0  0  0  0  0  0  0  0  0  0
    7.3680   46.8880   51.7260 N   0  0  0  0  0  0  0  0  0  0  0  0
    8.3210   46.3480   50.9030 N   0  0  0  0  0  0  0  0  0  0  0  0
    7.8180   48.6550   44.2480 C   0  0  0  0  0  0  0  0  0  0  0  0
    6.9720   48.6890   42.9970 C   0  0  0  0  0  0  0  0  0  0  0  0
    6.7560   51.5460   40.6270 C   0  0  0  0  0  0  0  0  0  0  0  0
    7.1400   52.6340   41.3820 N   0  0  0  0  0  0  0  0  0  0  0  0
    7.4640   52.4060   42.6760 C   0  0  0  0  0  0  0  0  0  0  0  0
    7.4290   51.1610   43.2170 C   0  0  0  0  0  0  0  0  0  0  0  0
    7.0170   50.0500   42.4510 C   0  0  0  0  0  0  0  0  0  0  0  0
    6.6880   50.3090   41.1190 C   0  0  0  0  0  0  0  0  0  0  0  0
    6.0620   50.5140   38.4980 C   0  0  0  0  0  0  0  0  0  0  0  0
    6.3470   51.8380   39.1870 C   0  0  0  0  0  0  0  0  0  0  0  0
    7.9130   53.6000   43.5040 C   0  0  0  0  0  0  0  0  0  0  0  0
    7.8060   53.2800   44.9890 C   0  0  0  0  0  0  0  0  0  0  0  0
  1 26  1  6  0  0  0
  1  2  1  0  0  0  0
  1  8  1  0  0  0  0
  2  3  1  0  0  0  0
  3  4  2  0  0  0  0
  3  5  1  0  0  0  0
  5 14  2  0  0  0  0
  6  5  1  0  0  0  0
  6  7  2  0  0  0  0
  8  6  1  0  0  0  0
  9 10  1  0  0  0  0
  9  1  1  0  0  0  0
 11 10  1  0  0  0  0
 12 13  1  0  0  0  0
 12 11  1  0  0  0  0
 13  9  1  0  0  0  0
 14 15  1  0  0  0  0
 15 16  2  0  0  0  0
 15 25  2  0  0  0  0
 16 17  2  0  0  0  0
 17 24  1  0  0  0  0
 17 18  2  0  0  0  0
 18 19  2  0  0  0  0
 19 21  1  0  0  0  0
 19 20  1  0  0  0  0
 22 23  1  0  0  0  0
 22 21  2  0  0  0  0
 24 22  1  0  0  0  0
 25 24  1  0  0  0  0
 27 26  1  0  0  0  0
 28 33  1  0  0  0  0
 28 29  2  0  0  0  0
 29 30  2  0  0  0  0
 30 31  1  0  0  0  0
 30 36  1  0  0  0  0
 32 27  1  0  0  0  0
 32 31  1  0  0  0  0
 33 32  2  0  0  0  0
 34 35  1  0  0  0  0
 35 28  1  0  0  0  0
 36 37  1  0  0  0  0
M  END
>  <minimizedAffinity>
-10.2327404

$$$$

 OpenBabel12271914573D

 37 41  0  0  1  0  0  0  0  0999 V2000
    7.9790   49.1550   44.5770 C   0  0  2  0  0  0  0  0  0  0  0  0
    6.9960   49.1750   45.6180 O   0  0  0  0  0  0  0  0  0  0  0  0
    6.9400   48.2770   46.6290 C   0  0  0  0  0  0  0  0  0  0  0  0
    5.9720   48.2100   47.3340 O   0  0  0  0  0  0  0  0  0  0  0  0
    8.1150   47.4010   46.8130 C   0  0  1  0  0  0  0  0  0  0  0  0
    9.2550   47.4580   46.0580 C   0  0  0  0  0  0  0  0  0  0  0  0
   10.3010   46.7800   46.1250 O   0  0  0  0  0  0  0  0  0  0  0  0
    9.3110   48.5200   44.9340 C   0  0  0  0  0  0  0  0  0  0  0  0
    8.1710   50.6420   44.1490 C   0  0  0  0  0  0  0  0  0  0  0  0
    7.6460   51.6300   45.1850 C   0  0  0  0  0  0  0  0  0  0  0  0
    6.5140   52.4030   44.5430 C   0  0  0  0  0  0  0  0  0  0  0  0
    6.6740   52.2240   43.0440 C   0  0  0  0  0  0  0  0  0  0  0  0
    7.3900   50.9170   42.8530 C   0  0  0  0  0  0  0  0  0  0  0  0
    7.9660   46.4220   47.9620 C   0  0  0  0  0  0  0  0  0  0  0  0
    8.1500   46.9750   49.4100 C   0  0  0  0  0  0  0  0  0  0  0  0
    7.0400   47.1260   50.2810 N   0  0  0  0  0  0  0  0  0  0  0  0
    7.6260   47.6360   51.3810 C   0  0  0  0  0  0  0  0  0  0  0  0
    7.0600   48.0110   52.5900 N   0  0  0  0  0  0  0  0  0  0  0  0
    7.8170   48.5520   53.5330 C   0  0  0  0  0  0  0  0  0  0  0  0
    7.2430   48.9880   54.8560 C   0  0  0  0  0  0  0  0  0  0  0  0
    9.2710   48.7530   53.2910 C   0  0  0  0  0  0  0  0  0  0  0  0
    9.7790   48.3740   52.1100 C   0  0  0  0  0  0  0  0  0  0  0  0
   11.2350   48.5540   51.7860 C   0  0  0  0  0  0  0  0  0  0  0  0
    8.9650   47.8140   51.1470 N   0  0  0  0  0  0  0  0  0  0  0  0
    9.2550   47.4380   49.8620 N   0  0  0  0  0  0  0  0  0  0  0  0
    7.4150   48.4860   43.2960 C   0  0  0  0  0  0  0  0  0  0  0  0
    8.3340   47.4300   42.7280 C   0  0  0  0  0  0  0  0  0  0  0  0
    8.2080   46.0620   39.2720 C   0  0  0  0  0  0  0  0  0  0  0  0
    7.5190   47.0210   38.5600 N   0  0  0  0  0  0  0  0  0  0  0  0
    7.0990   48.1140   39.2390 C   0  0  0  0  0  0  0  0  0  0  0  0
    7.3500   48.2780   40.5640 C   0  0  0  0  0  0  0  0  0  0  0  0
    8.0380   47.2880   41.2980 C   0  0  0  0  0  0  0  0  0  0  0  0
    8.4620   46.1700   40.5760 C   0  0  0  0  0  0  0  0  0  0  0  0
    7.8880   43.6250   39.0810 C   0  0  0  0  0  0  0  0  0  0  0  0
    8.6240   44.8180   38.4940 C   0  0  0  0  0  0  0  0  0  0  0  0
    6.3620   49.1850   38.4510 C   0  0  0  0  0  0  0  0  0  0  0  0
    6.3510   50.4950   39.2270 C   0  0  0  0  0  0  0  0  0  0  0  0
  1 26  1  6  0  0  0
  1  8  1  0  0  0  0
  1  2  1  0  0  0  0
  2  3  1  0  0  0  0
  3  5  1  0  0  0  0
  3  4  2  0  0  0  0
  5 14  1  1  0  0  0
  6  7  2  0  0  0  0
  6  5  1  0  0  0  0
  8  6  1  0  0  0  0
  9  1  1  0  0  0  0
  9 10  1  0  0  0  0
 11 10  1  0  0  0  0
 12 11  1  0  0  0  0
 13 12  1  0  0  0  0
 13  9  1  0  0  0  0
 14 15  1  0  0  0  0
 15 25  2  0  0  0  0
 15 16  2  0  0  0  0
 16 17  2  0  0  0  0
 17 18  2  0  0  0  0
 18 19  2  0  0  0  0
 19 20  1  0  0  0  0
 21 19  1  0  0  0  0
 22 21  2  0  0  0  0
 23 22  1  0  0  0  0
 24 17  1  0  0  0  0
 24 22  1  0  0  0  0
 25 24  1  0  0  0  0
 27 26  1  0  0  0  0
 28 33  1  0  0  0  0
 29 30  2  0  0  0  0
 29 28  2  0  0  0  0
 30 31  1  0  0  0  0
 31 32  1  0  0  0  0
 32 27  1  0  0  0  0
 33 32  2  0  0  0  0
 35 34  1  0  0  0  0
 35 28  1  0  0  0  0
 36 37  1  0  0  0  0
 36 30  1  0  0  0  0
M  END
>  <minimizedAffinity>
-10.1937304

$$$$
