
 OpenBabel12271915053D

 27 29  0  0  1  0  0  0  0  0999 V2000
    7.0880   47.1900   45.1020 C   0  0  1  0  0  0  0  0  0  0  0  0
    7.7300   45.9240   44.8310 N   0  0  0  0  0  0  0  0  0  0  0  0
    8.2340   45.7890   43.9070 H   0  0  0  0  0  0  0  0  0  0  0  0
    8.8800   45.7680   45.8920 O   0  0  0  0  0  0  0  0  0  0  0  0
    8.6600   46.8400   46.8160 C   0  0  2  0  0  0  0  0  0  0  0  0
   10.0560   47.3620   47.1370 C   0  0  1  0  0  0  0  0  0  0  0  0
   10.4960   46.9750   48.4970 C   0  0  2  0  0  0  0  0  0  0  0  0
    9.4320   47.3860   49.4330 C   0  0  1  0  0  0  0  0  0  0  0  0
    8.2910   46.4080   49.2410 C   0  0  2  0  0  0  0  0  0  0  0  0
    7.8380   46.2420   47.8610 O   0  0  0  0  0  0  0  0  0  0  0  0
    7.8480   47.9130   46.1650 C   0  0  0  0  0  0  0  0  0  0  0  0
    6.9330   47.9010   43.8090 C   0  0  0  0  0  0  0  0  0  0  0  0
    7.4480   49.2020   43.6700 C   0  0  0  0  0  0  0  0  0  0  0  0
    7.3170   49.8960   42.4940 C   0  0  0  0  0  0  0  0  0  0  0  0
    6.6830   49.3120   41.4030 C   0  0  0  0  0  0  0  0  0  0  0  0
    6.5440   50.0310   40.0940 C   0  0  0  0  0  0  0  0  0  0  0  0
    6.1850   48.0180   41.5220 C   0  0  0  0  0  0  0  0  0  0  0  0
    6.3100   47.3170   42.7180 C   0  0  0  0  0  0  0  0  0  0  0  0
   11.6860   47.7890   48.7490 O   0  0  0  0  0  0  0  0  0  0  0  0
   12.4510   47.2040   48.6000 H   0  0  0  0  0  0  0  0  0  0  0  0
   10.9900   46.8640   46.1350 O   0  0  0  0  0  0  0  0  0  0  0  0
   11.7150   47.4920   46.1340 H   0  0  0  0  0  0  0  0  0  0  0  0
    9.8050   47.2020   50.8130 O   0  0  0  0  0  0  0  0  0  0  0  0
   10.6180   47.7010   50.9430 H   0  0  0  0  0  0  0  0  0  0  0  0
    7.0960   46.7990   50.0810 C   0  0  0  0  0  0  0  0  0  0  0  0
    6.9930   48.2370   50.2990 O   0  0  0  0  0  0  0  0  0  0  0  0
    7.8830   48.6340   50.3120 H   0  0  0  0  0  0  0  0  0  0  0  0
  1 12  1  6  0  0  0
  1 11  1  0  0  0  0
  2  1  1  0  0  0  0
  2  4  1  0  0  0  0
  3  2  1  0  0  0  0
  4  5  1  0  0  0  0
  5 11  1  6  0  0  0
  5 10  1  0  0  0  0
  6  5  1  6  0  0  0
  6  7  1  0  0  0  0
  7 19  1  1  0  0  0
  7  8  1  0  0  0  0
  8 23  1  1  0  0  0
  9  8  1  0  0  0  0
  9 25  1  1  0  0  0
 10  9  1  0  0  0  0
 13 12  1  0  0  0  0
 14 13  2  0  0  0  0
 15 17  2  0  0  0  0
 15 14  1  0  0  0  0
 16 15  1  0  0  0  0
 17 18  1  0  0  0  0
 18 12  2  0  0  0  0
 20 19  1  0  0  0  0
 21  6  1  0  0  0  0
 22 21  1  0  0  0  0
 23 24  1  0  0  0  0
 25 26  1  0  0  0  0
 26 27  1  0  0  0  0
M  END
>  <minimizedAffinity>
-8.70922947

$$$$

 OpenBabel12271915053D

 27 29  0  0  1  0  0  0  0  0999 V2000
    8.5250   47.6990   42.1210 C   0  0  1  0  0  0  0  0  0  0  0  0
    9.6240   47.3420   42.9890 N   0  0  0  0  0  0  0  0  0  0  0  0
    9.7280   47.8400   43.9200 H   0  0  0  0  0  0  0  0  0  0  0  0
    9.3950   45.8440   43.4100 O   0  0  0  0  0  0  0  0  0  0  0  0
    8.3170   45.4020   42.5760 C   0  0  2  0  0  0  0  0  0  0  0  0
    7.4500   44.5470   43.4920 C   0  0  1  0  0  0  0  0  0  0  0  0
    7.5820   43.1010   43.1960 C   0  0  2  0  0  0  0  0  0  0  0  0
    7.3420   42.9290   41.7500 C   0  0  1  0  0  0  0  0  0  0  0  0
    8.5770   43.4530   41.0450 C   0  0  2  0  0  0  0  0  0  0  0  0
    8.9850   44.8050   41.4250 O   0  0  0  0  0  0  0  0  0  0  0  0
    7.5390   46.5780   42.0830 C   0  0  0  0  0  0  0  0  0  0  0  0
    8.0060   49.0140   42.5710 C   0  0  0  0  0  0  0  0  0  0  0  0
    8.3790   49.5090   43.8330 C   0  0  0  0  0  0  0  0  0  0  0  0
    7.9130   50.7160   44.2890 C   0  0  0  0  0  0  0  0  0  0  0  0
    7.0710   51.4870   43.4960 C   0  0  0  0  0  0  0  0  0  0  0  0
    6.5630   52.8230   43.9510 C   0  0  0  0  0  0  0  0  0  0  0  0
    6.7100   51.0170   42.2370 C   0  0  0  0  0  0  0  0  0  0  0  0
    7.1750   49.7880   41.7770 C   0  0  0  0  0  0  0  0  0  0  0  0
    6.4880   42.4690   43.9340 O   0  0  0  0  0  0  0  0  0  0  0  0
    6.8870   42.0910   44.7390 H   0  0  0  0  0  0  0  0  0  0  0  0
    7.8110   44.8200   44.8780 O   0  0  0  0  0  0  0  0  0  0  0  0
    7.0330   44.5920   45.3900 H   0  0  0  0  0  0  0  0  0  0  0  0
    7.2910   41.5440   41.3570 O   0  0  0  0  0  0  0  0  0  0  0  0
    6.6040   41.1350   41.8920 H   0  0  0  0  0  0  0  0  0  0  0  0
    8.3980   43.4230   39.5440 C   0  0  0  0  0  0  0  0  0  0  0  0
    8.9510   42.2240   38.9250 O   0  0  0  0  0  0  0  0  0  0  0  0
    9.7190   41.9110   39.4370 H   0  0  0  0  0  0  0  0  0  0  0  0
  1 12  1  1  0  0  0
  1  2  1  0  0  0  0
  2  4  1  0  0  0  0
  2  3  1  0  0  0  0
  5 11  1  6  0  0  0
  5  4  1  0  0  0  0
  6  5  1  6  0  0  0
  6 21  1  0  0  0  0
  7  6  1  0  0  0  0
  7 19  1  1  0  0  0
  8 23  1  1  0  0  0
  8  7  1  0  0  0  0
  9 25  1  6  0  0  0
  9 10  1  0  0  0  0
  9  8  1  0  0  0  0
 10  5  1  0  0  0  0
 11  1  1  0  0  0  0
 12 13  2  0  0  0  0
 13 14  1  0  0  0  0
 15 16  1  0  0  0  0
 15 14  2  0  0  0  0
 17 15  1  0  0  0  0
 18 17  2  0  0  0  0
 18 12  1  0  0  0  0
 19 20  1  0  0  0  0
 21 22  1  0  0  0  0
 23 24  1  0  0  0  0
 26 27  1  0  0  0  0
 26 25  1  0  0  0  0
M  END
>  <minimizedAffinity>
-8.33468723

$$$$

 OpenBabel12271915053D

 27 29  0  0  1  0  0  0  0  0999 V2000
    7.0350   48.2410   42.8740 C   0  0  1  0  0  0  0  0  0  0  0  0
    5.8610   48.1950   42.0330 N   0  0  0  0  0  0  0  0  0  0  0  0
    5.5610   49.0730   41.5180 H   0  0  0  0  0  0  0  0  0  0  0  0
    6.1840   47.1900   40.8660 O   0  0  0  0  0  0  0  0  0  0  0  0
    7.4190   46.5780   41.2560 C   0  0  2  0  0  0  0  0  0  0  0  0
    8.2230   46.4790   39.9650 C   0  0  1  0  0  0  0  0  0  0  0  0
    8.2950   45.0880   39.4600 C   0  0  2  0  0  0  0  0  0  0  0  0
    8.7720   44.2440   40.5720 C   0  0  1  0  0  0  0  0  0  0  0  0
    7.6110   44.1090   41.5360 C   0  0  2  0  0  0  0  0  0  0  0  0
    7.0050   45.3700   41.9620 O   0  0  0  0  0  0  0  0  0  0  0  0
    8.1310   47.4500   42.2390 C   0  0  0  0  0  0  0  0  0  0  0  0
    7.3330   49.6670   43.1520 C   0  0  0  0  0  0  0  0  0  0  0  0
    7.0760   50.6320   42.1630 C   0  0  0  0  0  0  0  0  0  0  0  0
    7.3460   51.9600   42.3780 C   0  0  0  0  0  0  0  0  0  0  0  0
    7.8650   52.3810   43.5970 C   0  0  0  0  0  0  0  0  0  0  0  0
    8.1490   53.8260   43.8770 C   0  0  0  0  0  0  0  0  0  0  0  0
    8.1070   51.4380   44.5910 C   0  0  0  0  0  0  0  0  0  0  0  0
    7.8410   50.0890   44.3700 C   0  0  0  0  0  0  0  0  0  0  0  0
    9.3250   45.1240   38.4210 O   0  0  0  0  0  0  0  0  0  0  0  0
    8.8510   45.1490   37.5690 H   0  0  0  0  0  0  0  0  0  0  0  0
    7.6250   47.3560   38.9660 O   0  0  0  0  0  0  0  0  0  0  0  0
    8.3350   47.5620   38.3560 H   0  0  0  0  0  0  0  0  0  0  0  0
    9.0330   42.8860   40.1670 O   0  0  0  0  0  0  0  0  0  0  0  0
    9.6700   42.9360   39.4470 H   0  0  0  0  0  0  0  0  0  0  0  0
    8.0210   43.3460   42.7750 C   0  0  0  0  0  0  0  0  0  0  0  0
    7.2140   43.6740   43.9440 O   0  0  0  0  0  0  0  0  0  0  0  0
    6.9140   44.5990   43.8900 H   0  0  0  0  0  0  0  0  0  0  0  0
  1 12  1  6  0  0  0
  2  1  1  0  0  0  0
  3  2  1  0  0  0  0
  4  5  1  0  0  0  0
  4  2  1  0  0  0  0
  5 10  1  0  0  0  0
  5 11  1  1  0  0  0
  6  5  1  1  0  0  0
  7 19  1  6  0  0  0
  7  6  1  0  0  0  0
  7  8  1  0  0  0  0
  8 23  1  6  0  0  0
  8  9  1  0  0  0  0
  9 10  1  0  0  0  0
  9 25  1  1  0  0  0
 11  1  1  0  0  0  0
 12 18  2  0  0  0  0
 13 14  2  0  0  0  0
 13 12  1  0  0  0  0
 14 15  1  0  0  0  0
 15 16  1  0  0  0  0
 15 17  2  0  0  0  0
 18 17  1  0  0  0  0
 20 19  1  0  0  0  0
 21  6  1  0  0  0  0
 22 21  1  0  0  0  0
 24 23  1  0  0  0  0
 25 26  1  0  0  0  0
 27 26  1  0  0  0  0
M  END
>  <minimizedAffinity>
-8.16505623

$$$$

 OpenBabel12271915053D

 27 29  0  0  1  0  0  0  0  0999 V2000
    8.2450   50.2590   45.1020 C   0  0  1  0  0  0  0  0  0  0  0  0
    7.0200   50.1010   45.8520 N   0  0  0  0  0  0  0  0  0  0  0  0
    6.1170   50.4900   45.4520 H   0  0  0  0  0  0  0  0  0  0  0  0
    6.7380   48.5560   45.9310 O   0  0  0  0  0  0  0  0  0  0  0  0
    7.9310   47.9500   45.4200 C   0  0  2  0  0  0  0  0  0  0  0  0
    7.4370   46.7890   44.5650 C   0  0  1  0  0  0  0  0  0  0  0  0
    7.6730   45.4790   45.2150 C   0  0  2  0  0  0  0  0  0  0  0  0
    9.0980   45.4290   45.5910 C   0  0  1  0  0  0  0  0  0  0  0  0
    9.2590   46.3450   46.7870 C   0  0  2  0  0  0  0  0  0  0  0  0
    8.7360   47.6980   46.6110 O   0  0  0  0  0  0  0  0  0  0  0  0
    8.6770   48.9300   44.5740 C   0  0  0  0  0  0  0  0  0  0  0  0
    8.0200   51.3230   44.0930 C   0  0  0  0  0  0  0  0  0  0  0  0
    8.0800   52.6720   44.4860 C   0  0  0  0  0  0  0  0  0  0  0  0
    7.8690   53.6840   43.5850 C   0  0  0  0  0  0  0  0  0  0  0  0
    7.6090   53.3920   42.2510 C   0  0  0  0  0  0  0  0  0  0  0  0
    7.3980   54.4730   41.2330 C   0  0  0  0  0  0  0  0  0  0  0  0
    7.5650   52.0610   41.8450 C   0  0  0  0  0  0  0  0  0  0  0  0
    7.7700   51.0330   42.7610 C   0  0  0  0  0  0  0  0  0  0  0  0
    7.4290   44.4930   44.1610 O   0  0  0  0  0  0  0  0  0  0  0  0
    6.5360   44.1380   44.3240 H   0  0  0  0  0  0  0  0  0  0  0  0
    6.0170   46.9760   44.2900 O   0  0  0  0  0  0  0  0  0  0  0  0
    5.8530   46.4880   43.4800 H   0  0  0  0  0  0  0  0  0  0  0  0
    9.4950   44.1400   46.0960 O   0  0  0  0  0  0  0  0  0  0  0  0
    9.2750   43.5010   45.4110 H   0  0  0  0  0  0  0  0  0  0  0  0
   10.7100   46.4530   47.1960 C   0  0  0  0  0  0  0  0  0  0  0  0
   11.4860   47.3300   46.3260 O   0  0  0  0  0  0  0  0  0  0  0  0
   11.1250   47.3040   45.4220 H   0  0  0  0  0  0  0  0  0  0  0  0
  1 12  1  6  0  0  0
  1  2  1  0  0  0  0
  2  4  1  0  0  0  0
  3  2  1  0  0  0  0
  5 11  1  6  0  0  0
  5  4  1  0  0  0  0
  5 10  1  0  0  0  0
  6  7  1  0  0  0  0
  6  5  1  1  0  0  0
  7 19  1  6  0  0  0
  7  8  1  0  0  0  0
  8 23  1  1  0  0  0
  8  9  1  0  0  0  0
  9 25  1  6  0  0  0
 10  9  1  0  0  0  0
 11  1  1  0  0  0  0
 12 13  1  0  0  0  0
 14 13  2  0  0  0  0
 15 14  1  0  0  0  0
 16 15  1  0  0  0  0
 17 15  2  0  0  0  0
 17 18  1  0  0  0  0
 18 12  2  0  0  0  0
 19 20  1  0  0  0  0
 21  6  1  0  0  0  0
 22 21  1  0  0  0  0
 24 23  1  0  0  0  0
 26 25  1  0  0  0  0
 27 26  1  0  0  0  0
M  END
>  <minimizedAffinity>
-8.09804916

$$$$

 OpenBabel12271915053D

 27 29  0  0  1  0  0  0  0  0999 V2000
    9.5380   47.0670   46.2820 C   0  0  1  0  0  0  0  0  0  0  0  0
   10.9810   47.0890   46.2250 N   0  0  0  0  0  0  0  0  0  0  0  0
   11.4710   47.9730   45.9010 H   0  0  0  0  0  0  0  0  0  0  0  0
   11.4920   46.9200   47.7030 O   0  0  0  0  0  0  0  0  0  0  0  0
   10.3150   46.5910   48.4500 C   0  0  2  0  0  0  0  0  0  0  0  0
   10.4570   47.3700   49.7520 C   0  0  1  0  0  0  0  0  0  0  0  0
   10.7960   46.4890   50.8940 C   0  0  2  0  0  0  0  0  0  0  0  0
    9.8040   45.3970   50.9120 C   0  0  1  0  0  0  0  0  0  0  0  0
   10.1580   44.4780   49.7600 C   0  0  2  0  0  0  0  0  0  0  0  0
   10.3010   45.1330   48.4610 O   0  0  0  0  0  0  0  0  0  0  0  0
    9.0990   47.0460   47.7100 C   0  0  0  0  0  0  0  0  0  0  0  0
    9.0380   48.1970   45.4610 C   0  0  0  0  0  0  0  0  0  0  0  0
    9.8260   48.6830   44.4020 C   0  0  0  0  0  0  0  0  0  0  0  0
    9.4030   49.7310   43.6250 C   0  0  0  0  0  0  0  0  0  0  0  0
    8.1680   50.3250   43.8610 C   0  0  0  0  0  0  0  0  0  0  0  0
    7.6630   51.4560   43.0160 C   0  0  0  0  0  0  0  0  0  0  0  0
    7.3710   49.8420   44.8940 C   0  0  0  0  0  0  0  0  0  0  0  0
    7.8030   48.7840   45.6890 C   0  0  0  0  0  0  0  0  0  0  0  0
   10.5980   47.3250   52.0790 O   0  0  0  0  0  0  0  0  0  0  0  0
   11.4860   47.6160   52.3570 H   0  0  0  0  0  0  0  0  0  0  0  0
   11.4750   48.3990   49.5800 O   0  0  0  0  0  0  0  0  0  0  0  0
   11.2630   49.0730   50.2280 H   0  0  0  0  0  0  0  0  0  0  0  0
    9.9300   44.5510   52.0700 O   0  0  0  0  0  0  0  0  0  0  0  0
    9.8520   45.1270   52.8370 H   0  0  0  0  0  0  0  0  0  0  0  0
    9.1380   43.3710   49.6170 C   0  0  0  0  0  0  0  0  0  0  0  0
    8.6010   43.2580   48.2660 O   0  0  0  0  0  0  0  0  0  0  0  0
    8.5900   44.1340   47.8400 H   0  0  0  0  0  0  0  0  0  0  0  0
  1 12  1  1  0  0  0
  1 11  1  0  0  0  0
  2  1  1  0  0  0  0
  2  4  1  0  0  0  0
  3  2  1  0  0  0  0
  4  5  1  0  0  0  0
  5 11  1  6  0  0  0
  5 10  1  0  0  0  0
  6  5  1  6  0  0  0
  6  7  1  0  0  0  0
  7  8  1  0  0  0  0
  7 19  1  1  0  0  0
  8 23  1  1  0  0  0
  9 25  1  6  0  0  0
  9  8  1  0  0  0  0
 10  9  1  0  0  0  0
 12 18  1  0  0  0  0
 13 12  2  0  0  0  0
 14 15  2  0  0  0  0
 14 13  1  0  0  0  0
 15 17  1  0  0  0  0
 16 15  1  0  0  0  0
 17 18  2  0  0  0  0
 19 20  1  0  0  0  0
 21  6  1  0  0  0  0
 21 22  1  0  0  0  0
 23 24  1  0  0  0  0
 26 25  1  0  0  0  0
 27 26  1  0  0  0  0
M  END
>  <minimizedAffinity>
-7.84405518

$$$$

 OpenBabel12271915053D

 27 29  0  0  1  0  0  0  0  0999 V2000
    7.2700   49.6060   44.1380 C   0  0  1  0  0  0  0  0  0  0  0  0
    7.7210   48.5300   43.2860 N   0  0  0  0  0  0  0  0  0  0  0  0
    8.3090   48.7600   42.4330 H   0  0  0  0  0  0  0  0  0  0  0  0
    8.6870   47.6430   44.1550 O   0  0  0  0  0  0  0  0  0  0  0  0
    8.5330   48.1510   45.4860 C   0  0  2  0  0  0  0  0  0  0  0  0
    9.9440   48.1490   46.0630 C   0  0  1  0  0  0  0  0  0  0  0  0
   10.1390   47.0670   47.0560 C   0  0  2  0  0  0  0  0  0  0  0  0
    9.0490   47.1810   48.0440 C   0  0  1  0  0  0  0  0  0  0  0  0
    7.7940   46.6810   47.3570 C   0  0  2  0  0  0  0  0  0  0  0  0
    7.4980   47.3040   46.0680 O   0  0  0  0  0  0  0  0  0  0  0  0
    8.0000   49.5460   45.4400 C   0  0  0  0  0  0  0  0  0  0  0  0
    7.4000   50.8700   43.3730 C   0  0  0  0  0  0  0  0  0  0  0  0
    7.1610   50.8660   41.9870 C   0  0  0  0  0  0  0  0  0  0  0  0
    7.2800   52.0120   41.2420 C   0  0  0  0  0  0  0  0  0  0  0  0
    7.6210   53.2130   41.8540 C   0  0  0  0  0  0  0  0  0  0  0  0
    7.7340   54.4900   41.0770 C   0  0  0  0  0  0  0  0  0  0  0  0
    7.8410   53.2340   43.2280 C   0  0  0  0  0  0  0  0  0  0  0  0
    7.7300   52.0690   43.9830 C   0  0  0  0  0  0  0  0  0  0  0  0
   11.4060   47.3900   47.7130 O   0  0  0  0  0  0  0  0  0  0  0  0
   12.0760   46.8070   47.3110 H   0  0  0  0  0  0  0  0  0  0  0  0
   10.9020   48.0190   44.9710 O   0  0  0  0  0  0  0  0  0  0  0  0
   11.7160   48.4020   45.3040 H   0  0  0  0  0  0  0  0  0  0  0  0
    9.2080   46.2780   49.1540 O   0  0  0  0  0  0  0  0  0  0  0  0
   10.0700   46.4700   49.5380 H   0  0  0  0  0  0  0  0  0  0  0  0
    6.5840   46.8520   48.2480 C   0  0  0  0  0  0  0  0  0  0  0  0
    5.3810   47.2280   47.5150 O   0  0  0  0  0  0  0  0  0  0  0  0
    5.6210   47.7580   46.7330 H   0  0  0  0  0  0  0  0  0  0  0  0
  1 12  1  6  0  0  0
  1 11  1  0  0  0  0
  2  1  1  0  0  0  0
  2  4  1  0  0  0  0
  3  2  1  0  0  0  0
  4  5  1  0  0  0  0
  5 11  1  6  0  0  0
  5 10  1  0  0  0  0
  6  5  1  6  0  0  0
  6  7  1  0  0  0  0
  7 19  1  1  0  0  0
  7  8  1  0  0  0  0
  8 23  1  1  0  0  0
  9  8  1  0  0  0  0
  9 25  1  1  0  0  0
 10  9  1  0  0  0  0
 12 18  1  0  0  0  0
 13 12  2  0  0  0  0
 14 15  2  0  0  0  0
 14 13  1  0  0  0  0
 15 17  1  0  0  0  0
 16 15  1  0  0  0  0
 17 18  2  0  0  0  0
 20 19  1  0  0  0  0
 21 22  1  0  0  0  0
 21  6  1  0  0  0  0
 23 24  1  0  0  0  0
 26 25  1  0  0  0  0
 27 26  1  0  0  0  0
M  END
>  <minimizedAffinity>
-7.804111

$$$$

 OpenBabel12271915053D

 27 29  0  0  1  0  0  0  0  0999 V2000
    8.5600   48.5650   43.1770 C   0  0  1  0  0  0  0  0  0  0  0  0
    9.9160   48.7420   43.6420 N   0  0  0  0  0  0  0  0  0  0  0  0
   10.1600   49.6110   44.2000 H   0  0  0  0  0  0  0  0  0  0  0  0
   10.1980   47.5760   44.6590 O   0  0  0  0  0  0  0  0  0  0  0  0
    9.0690   46.7050   44.5220 C   0  0  2  0  0  0  0  0  0  0  0  0
    8.7470   46.2690   45.9460 C   0  0  1  0  0  0  0  0  0  0  0  0
    9.1410   44.8640   46.2020 C   0  0  2  0  0  0  0  0  0  0  0  0
    8.5410   44.0410   45.1340 C   0  0  1  0  0  0  0  0  0  0  0  0
    9.3460   44.3130   43.8800 C   0  0  2  0  0  0  0  0  0  0  0  0
    9.4990   45.7250   43.5310 O   0  0  0  0  0  0  0  0  0  0  0  0
    7.9150   47.4550   43.9410 C   0  0  0  0  0  0  0  0  0  0  0  0
    7.8850   49.8840   43.2440 C   0  0  0  0  0  0  0  0  0  0  0  0
    7.3410   50.4430   42.0740 C   0  0  0  0  0  0  0  0  0  0  0  0
    6.7170   51.6640   42.0940 C   0  0  0  0  0  0  0  0  0  0  0  0
    6.5940   52.3690   43.2860 C   0  0  0  0  0  0  0  0  0  0  0  0
    5.8960   53.6950   43.3500 C   0  0  0  0  0  0  0  0  0  0  0  0
    7.1110   51.8190   44.4540 C   0  0  0  0  0  0  0  0  0  0  0  0
    7.7520   50.5830   44.4330 C   0  0  0  0  0  0  0  0  0  0  0  0
    8.5020   44.5240   47.4740 O   0  0  0  0  0  0  0  0  0  0  0  0
    9.1990   44.5860   48.1530 H   0  0  0  0  0  0  0  0  0  0  0  0
    9.4160   47.1660   46.8800 O   0  0  0  0  0  0  0  0  0  0  0  0
    8.9030   47.1160   47.6880 H   0  0  0  0  0  0  0  0  0  0  0  0
    8.7230   42.6290   45.3520 O   0  0  0  0  0  0  0  0  0  0  0  0
    8.3450   42.4370   46.2170 H   0  0  0  0  0  0  0  0  0  0  0  0
    8.7510   43.5980   42.6880 C   0  0  0  0  0  0  0  0  0  0  0  0
    9.3630   42.2980   42.4360 O   0  0  0  0  0  0  0  0  0  0  0  0
   10.2960   42.3110   42.7140 H   0  0  0  0  0  0  0  0  0  0  0  0
  1 12  1  1  0  0  0
  1  2  1  0  0  0  0
  1 11  1  0  0  0  0
  2  3  1  0  0  0  0
  2  4  1  0  0  0  0
  5 11  1  6  0  0  0
  5  4  1  0  0  0  0
  6  5  1  6  0  0  0
  6  7  1  0  0  0  0
  6 21  1  0  0  0  0
  7 19  1  1  0  0  0
  8 23  1  1  0  0  0
  8  7  1  0  0  0  0
  9 25  1  6  0  0  0
  9  8  1  0  0  0  0
 10  9  1  0  0  0  0
 10  5  1  0  0  0  0
 12 18  2  0  0  0  0
 13 14  2  0  0  0  0
 13 12  1  0  0  0  0
 14 15  1  0  0  0  0
 15 16  1  0  0  0  0
 15 17  2  0  0  0  0
 18 17  1  0  0  0  0
 19 20  1  0  0  0  0
 21 22  1  0  0  0  0
 23 24  1  0  0  0  0
 26 25  1  0  0  0  0
 26 27  1  0  0  0  0
M  END
>  <minimizedAffinity>
-7.73029947

$$$$

 OpenBabel12271915053D

 27 29  0  0  1  0  0  0  0  0999 V2000
    8.0300   46.9130   48.0670 C   0  0  1  0  0  0  0  0  0  0  0  0
    6.6960   47.4660   48.0940 N   0  0  0  0  0  0  0  0  0  0  0  0
    6.4730   48.2440   48.7810 H   0  0  0  0  0  0  0  0  0  0  0  0
    6.4640   48.1500   46.6960 O   0  0  0  0  0  0  0  0  0  0  0  0
    7.5890   47.7400   45.9100 C   0  0  2  0  0  0  0  0  0  0  0  0
    7.9780   48.9830   45.1190 C   0  0  1  0  0  0  0  0  0  0  0  0
    7.6010   48.8760   43.6900 C   0  0  2  0  0  0  0  0  0  0  0  0
    8.1560   47.6040   43.1880 C   0  0  1  0  0  0  0  0  0  0  0  0
    7.2930   46.5010   43.7680 C   0  0  2  0  0  0  0  0  0  0  0  0
    7.1190   46.5440   45.2200 O   0  0  0  0  0  0  0  0  0  0  0  0
    8.7130   47.3290   46.8050 C   0  0  0  0  0  0  0  0  0  0  0  0
    8.7020   47.2980   49.3330 C   0  0  0  0  0  0  0  0  0  0  0  0
    7.9230   47.6710   50.4430 C   0  0  0  0  0  0  0  0  0  0  0  0
    8.5060   48.0420   51.6270 C   0  0  0  0  0  0  0  0  0  0  0  0
    9.8900   48.0370   51.7590 C   0  0  0  0  0  0  0  0  0  0  0  0
   10.5620   48.4120   53.0460 C   0  0  0  0  0  0  0  0  0  0  0  0
   10.6720   47.6520   50.6730 C   0  0  0  0  0  0  0  0  0  0  0  0
   10.0810   47.2840   49.4680 C   0  0  0  0  0  0  0  0  0  0  0  0
    8.2990   49.9840   43.0380 O   0  0  0  0  0  0  0  0  0  0  0  0
    7.6340   50.6840   42.9080 H   0  0  0  0  0  0  0  0  0  0  0  0
    7.3480   50.1480   45.7280 O   0  0  0  0  0  0  0  0  0  0  0  0
    7.8980   50.8920   45.4750 H   0  0  0  0  0  0  0  0  0  0  0  0
    7.9900   47.4490   41.7660 O   0  0  0  0  0  0  0  0  0  0  0  0
    8.4070   48.2150   41.3590 H   0  0  0  0  0  0  0  0  0  0  0  0
    7.8360   45.1390   43.4020 C   0  0  0  0  0  0  0  0  0  0  0  0
    7.0450   44.0410   43.9470 O   0  0  0  0  0  0  0  0  0  0  0  0
    6.6410   44.3110   44.7900 H   0  0  0  0  0  0  0  0  0  0  0  0
  1  2  1  0  0  0  0
  1 12  1  1  0  0  0
  2  3  1  0  0  0  0
  4  2  1  0  0  0  0
  5  4  1  0  0  0  0
  5 11  1  1  0  0  0
  6 21  1  0  0  0  0
  6  5  1  1  0  0  0
  7 19  1  6  0  0  0
  7  6  1  0  0  0  0
  8 23  1  6  0  0  0
  8  7  1  0  0  0  0
  8  9  1  0  0  0  0
  9 25  1  1  0  0  0
  9 10  1  0  0  0  0
 10  5  1  0  0  0  0
 11  1  1  0  0  0  0
 12 18  2  0  0  0  0
 12 13  1  0  0  0  0
 13 14  2  0  0  0  0
 14 15  1  0  0  0  0
 15 16  1  0  0  0  0
 17 15  2  0  0  0  0
 18 17  1  0  0  0  0
 20 19  1  0  0  0  0
 22 21  1  0  0  0  0
 24 23  1  0  0  0  0
 25 26  1  0  0  0  0
 26 27  1  0  0  0  0
M  END
>  <minimizedAffinity>
-7.72822428

$$$$

 OpenBabel12271915053D

 27 29  0  0  1  0  0  0  0  0999 V2000
    9.4670   43.5850   48.0440 C   0  0  1  0  0  0  0  0  0  0  0  0
    9.9790   44.3230   49.1760 N   0  0  0  0  0  0  0  0  0  0  0  0
   10.9120   44.0430   49.5950 H   0  0  0  0  0  0  0  0  0  0  0  0
   10.2400   45.7900   48.6740 O   0  0  0  0  0  0  0  0  0  0  0  0
    9.6500   45.8300   47.3690 C   0  0  2  0  0  0  0  0  0  0  0  0
   10.6310   46.6390   46.5290 C   0  0  1  0  0  0  0  0  0  0  0  0
   10.1210   47.9970   46.2300 C   0  0  2  0  0  0  0  0  0  0  0  0
    8.7710   47.8400   45.6560 C   0  0  1  0  0  0  0  0  0  0  0  0
    7.8570   47.4660   46.8050 C   0  0  2  0  0  0  0  0  0  0  0  0
    8.3000   46.3270   47.6080 O   0  0  0  0  0  0  0  0  0  0  0  0
    9.5280   44.4440   46.8240 C   0  0  0  0  0  0  0  0  0  0  0  0
   10.2040   42.2990   47.9770 C   0  0  0  0  0  0  0  0  0  0  0  0
   11.3810   42.1360   48.7290 C   0  0  0  0  0  0  0  0  0  0  0  0
   12.0950   40.9660   48.6870 C   0  0  0  0  0  0  0  0  0  0  0  0
   11.6520   39.9030   47.9070 C   0  0  0  0  0  0  0  0  0  0  0  0
   12.3930   38.6000   47.8560 C   0  0  0  0  0  0  0  0  0  0  0  0
   10.4790   40.0440   47.1730 C   0  0  0  0  0  0  0  0  0  0  0  0
    9.7580   41.2350   47.2080 C   0  0  0  0  0  0  0  0  0  0  0  0
   11.0170   48.5110   45.1940 O   0  0  0  0  0  0  0  0  0  0  0  0
   11.6400   49.1090   45.6460 H   0  0  0  0  0  0  0  0  0  0  0  0
   11.9070   46.7140   47.2310 O   0  0  0  0  0  0  0  0  0  0  0  0
   12.5610   46.8640   46.5460 H   0  0  0  0  0  0  0  0  0  0  0  0
    8.2220   49.0830   45.1790 O   0  0  0  0  0  0  0  0  0  0  0  0
    8.8530   49.4310   44.5400 H   0  0  0  0  0  0  0  0  0  0  0  0
    6.4580   47.1750   46.3120 C   0  0  0  0  0  0  0  0  0  0  0  0
    6.4350   46.4530   45.0440 O   0  0  0  0  0  0  0  0  0  0  0  0
    7.2140   46.6960   44.5110 H   0  0  0  0  0  0  0  0  0  0  0  0
  1 12  1  6  0  0  0
  1  2  1  0  0  0  0
  2  3  1  0  0  0  0
  4  2  1  0  0  0  0
  5 11  1  6  0  0  0
  5 10  1  0  0  0  0
  5  4  1  0  0  0  0
  6 21  1  0  0  0  0
  6  5  1  1  0  0  0
  7 19  1  6  0  0  0
  7  6  1  0  0  0  0
  8 23  1  1  0  0  0
  8  7  1  0  0  0  0
  8  9  1  0  0  0  0
  9 25  1  6  0  0  0
  9 10  1  0  0  0  0
 11  1  1  0  0  0  0
 12 13  2  0  0  0  0
 14 13  1  0  0  0  0
 15 14  2  0  0  0  0
 16 15  1  0  0  0  0
 17 18  2  0  0  0  0
 17 15  1  0  0  0  0
 18 12  1  0  0  0  0
 19 20  1  0  0  0  0
 22 21  1  0  0  0  0
 24 23  1  0  0  0  0
 26 25  1  0  0  0  0
 27 26  1  0  0  0  0
M  END
>  <minimizedAffinity>
-7.52177382

$$$$
