
 OpenBabel12271914563D

 32 35  0  0  1  0  0  0  0  0999 V2000
    7.4800   46.3180   44.2720 C   0  0  0  0  0  0  0  0  0  0  0  0
    7.3850   47.6030   43.7500 C   0  0  0  0  0  0  0  0  0  0  0  0
    7.7150   48.7390   44.4710 C   0  0  0  0  0  0  0  0  0  0  0  0
    8.1000   48.5060   45.7930 C   0  0  0  0  0  0  0  0  0  0  0  0
    8.2000   47.2750   46.3650 N   0  0  0  0  0  0  0  0  0  0  0  0
    7.9210   46.1930   45.5880 C   0  0  0  0  0  0  0  0  0  0  0  0
    7.6530   50.0740   43.8530 C   0  0  0  0  0  0  0  0  0  0  0  0
    7.9420   51.2290   44.5910 C   0  0  0  0  0  0  0  0  0  0  0  0
    7.9200   52.5160   44.0400 C   0  0  0  0  0  0  0  0  0  0  0  0
    7.5710   52.6220   42.6980 C   0  0  0  0  0  0  0  0  0  0  0  0
    7.4350   53.7040   41.8670 N   0  0  0  0  0  0  0  0  0  0  0  0
    7.5740   54.6820   42.0760 H   0  0  0  0  0  0  0  0  0  0  0  0
    7.0820   53.3720   40.6240 N   0  0  0  0  0  0  0  0  0  0  0  0
    6.9810   52.0430   40.6430 C   0  0  0  0  0  0  0  0  0  0  0  0
    6.6100   51.2790   39.4230 C   0  0  0  0  0  0  0  0  0  0  0  0
    7.2760   51.5170   41.9270 C   0  0  0  0  0  0  0  0  0  0  0  0
    7.3210   50.2340   42.4980 C   0  0  0  0  0  0  0  0  0  0  0  0
    7.0400   45.3860   43.3960 O   0  0  0  0  0  0  0  0  0  0  0  0
    7.8800   44.4010   42.8300 C   0  0  0  0  0  0  0  0  0  0  0  0
    8.9470   45.0090   41.9050 C   0  0  1  0  0  0  0  0  0  0  0  0
   10.3150   44.6280   42.4280 N   0  0  0  0  0  0  0  0  0  0  0  0
   10.4870   43.6160   42.3920 H   0  0  0  0  0  0  0  0  0  0  0  0
   10.4200   44.9090   43.4180 H   0  0  0  0  0  0  0  0  0  0  0  0
   11.0630   45.1190   41.9150 H   0  0  0  0  0  0  0  0  0  0  0  0
    8.7540   44.4840   40.4800 C   0  0  0  0  0  0  0  0  0  0  0  0
    8.1180   45.4820   39.5530 C   0  0  0  0  0  0  0  0  0  0  0  0
    7.8560   46.7850   39.9930 C   0  0  0  0  0  0  0  0  0  0  0  0
    7.2440   47.6970   39.1370 C   0  0  0  0  0  0  0  0  0  0  0  0
    6.9090   47.3230   37.8360 C   0  0  0  0  0  0  0  0  0  0  0  0
    6.0730   48.5550   36.6840 Br  0  0  0  0  0  0  0  0  0  0  0  0
    7.1790   46.0350   37.3900 C   0  0  0  0  0  0  0  0  0  0  0  0
    7.7750   45.1140   38.2450 C   0  0  0  0  0  0  0  0  0  0  0  0
  1  6  1  0  0  0  0
  2  1  2  0  0  0  0
  2  3  1  0  0  0  0
  3  4  2  0  0  0  0
  4  5  1  0  0  0  0
  6  5  2  0  0  0  0
  7  3  1  0  0  0  0
  7  8  2  0  0  0  0
  9  8  1  0  0  0  0
 10  9  2  0  0  0  0
 11 12  1  0  0  0  0
 11 10  1  0  0  0  0
 13 14  2  0  0  0  0
 13 11  1  0  0  0  0
 14 16  1  0  0  0  0
 15 14  1  0  0  0  0
 16 17  2  0  0  0  0
 16 10  1  0  0  0  0
 17  7  1  0  0  0  0
 18  1  1  0  0  0  0
 19 18  1  0  0  0  0
 20 25  1  6  0  0  0
 20 21  1  0  0  0  0
 20 19  1  0  0  0  0
 21 23  1  0  0  0  0
 22 21  1  0  0  0  0
 24 21  1  0  0  0  0
 26 27  1  0  0  0  0
 26 25  1  0  0  0  0
 28 27  2  0  0  0  0
 29 28  1  0  0  0  0
 30 29  1  0  0  0  0
 31 29  2  0  0  0  0
 31 32  1  0  0  0  0
 32 26  2  0  0  0  0
M  END
>  <minimizedAffinity>
-9.19834328

$$$$

 OpenBabel12271914563D

 32 35  0  0  1  0  0  0  0  0999 V2000
    8.0280   46.2020   41.3230 C   0  0  0  0  0  0  0  0  0  0  0  0
    7.6390   46.5270   42.6180 C   0  0  0  0  0  0  0  0  0  0  0  0
    8.3030   46.0690   43.7450 C   0  0  0  0  0  0  0  0  0  0  0  0
    9.3680   45.2030   43.4890 C   0  0  0  0  0  0  0  0  0  0  0  0
    9.7880   44.8380   42.2480 N   0  0  0  0  0  0  0  0  0  0  0  0
    9.1350   45.3680   41.1780 C   0  0  0  0  0  0  0  0  0  0  0  0
    7.8860   46.4900   45.0930 C   0  0  0  0  0  0  0  0  0  0  0  0
    6.5830   46.9400   45.3410 C   0  0  0  0  0  0  0  0  0  0  0  0
    6.1350   47.3260   46.6100 C   0  0  0  0  0  0  0  0  0  0  0  0
    7.0570   47.2690   47.6490 C   0  0  0  0  0  0  0  0  0  0  0  0
    6.9620   47.5850   48.9800 N   0  0  0  0  0  0  0  0  0  0  0  0
    6.1630   47.9320   49.4910 H   0  0  0  0  0  0  0  0  0  0  0  0
    8.0960   47.3790   49.6520 N   0  0  0  0  0  0  0  0  0  0  0  0
    8.9540   46.9220   48.7400 C   0  0  0  0  0  0  0  0  0  0  0  0
   10.3480   46.5590   49.1050 C   0  0  0  0  0  0  0  0  0  0  0  0
    8.3520   46.8350   47.4590 C   0  0  0  0  0  0  0  0  0  0  0  0
    8.7740   46.4360   46.1790 C   0  0  0  0  0  0  0  0  0  0  0  0
    7.1840   46.7170   40.4000 O   0  0  0  0  0  0  0  0  0  0  0  0
    7.6200   47.2410   39.1620 C   0  0  0  0  0  0  0  0  0  0  0  0
    7.4180   48.7620   39.0710 C   0  0  1  0  0  0  0  0  0  0  0  0
    7.1110   49.1240   37.6340 N   0  0  0  0  0  0  0  0  0  0  0  0
    6.2250   48.7240   37.3030 H   0  0  0  0  0  0  0  0  0  0  0  0
    7.8480   48.7690   37.0020 H   0  0  0  0  0  0  0  0  0  0  0  0
    7.0940   50.1460   37.5000 H   0  0  0  0  0  0  0  0  0  0  0  0
    6.2650   49.1840   39.9860 C   0  0  0  0  0  0  0  0  0  0  0  0
    6.6570   50.2150   41.0080 C   0  0  0  0  0  0  0  0  0  0  0  0
    6.6270   51.5760   40.6830 C   0  0  0  0  0  0  0  0  0  0  0  0
    7.0160   52.5240   41.6270 C   0  0  0  0  0  0  0  0  0  0  0  0
    7.4160   52.1220   42.9010 C   0  0  0  0  0  0  0  0  0  0  0  0
    7.9510   53.4050   44.1710 Br  0  0  0  0  0  0  0  0  0  0  0  0
    7.4360   50.7730   43.2330 C   0  0  0  0  0  0  0  0  0  0  0  0
    7.0650   49.8210   42.2890 C   0  0  0  0  0  0  0  0  0  0  0  0
  1  2  1  0  0  0  0
  2  3  2  0  0  0  0
  3  7  1  0  0  0  0
  4  3  1  0  0  0  0
  5  4  2  0  0  0  0
  6  1  2  0  0  0  0
  6  5  1  0  0  0  0
  7  8  2  0  0  0  0
  7 17  1  0  0  0  0
  8  9  1  0  0  0  0
  9 10  2  0  0  0  0
 10 11  1  0  0  0  0
 11 12  1  0  0  0  0
 11 13  1  0  0  0  0
 14 15  1  0  0  0  0
 14 13  2  0  0  0  0
 16 10  1  0  0  0  0
 16 14  1  0  0  0  0
 17 16  2  0  0  0  0
 18  1  1  0  0  0  0
 19 18  1  0  0  0  0
 20 19  1  6  0  0  0
 20 25  1  0  0  0  0
 21 20  1  0  0  0  0
 22 21  1  0  0  0  0
 23 21  1  0  0  0  0
 24 21  1  0  0  0  0
 25 26  1  0  0  0  0
 26 32  1  0  0  0  0
 27 26  2  0  0  0  0
 27 28  1  0  0  0  0
 28 29  2  0  0  0  0
 29 31  1  0  0  0  0
 29 30  1  0  0  0  0
 32 31  2  0  0  0  0
M  END
>  <minimizedAffinity>
-9.15158844

$$$$

 OpenBabel12271914563D

 32 35  0  0  1  0  0  0  0  0999 V2000
    9.0110   46.2370   42.4500 C   0  0  0  0  0  0  0  0  0  0  0  0
    8.4500   47.0230   41.4490 C   0  0  0  0  0  0  0  0  0  0  0  0
    8.0210   46.5120   40.2360 C   0  0  0  0  0  0  0  0  0  0  0  0
    8.2440   45.1450   40.0610 C   0  0  0  0  0  0  0  0  0  0  0  0
    8.8000   44.3250   40.9950 N   0  0  0  0  0  0  0  0  0  0  0  0
    9.1450   44.8740   42.1910 C   0  0  0  0  0  0  0  0  0  0  0  0
    7.3800   47.3790   39.2320 C   0  0  0  0  0  0  0  0  0  0  0  0
    6.9560   48.6730   39.5570 C   0  0  0  0  0  0  0  0  0  0  0  0
    6.3650   49.5410   38.6310 C   0  0  0  0  0  0  0  0  0  0  0  0
    6.1860   49.0580   37.3390 C   0  0  0  0  0  0  0  0  0  0  0  0
    5.6350   49.6200   36.2160 N   0  0  0  0  0  0  0  0  0  0  0  0
    5.2390   50.5410   36.1020 H   0  0  0  0  0  0  0  0  0  0  0  0
    5.6580   48.8100   35.1570 N   0  0  0  0  0  0  0  0  0  0  0  0
    6.2340   47.6910   35.5970 C   0  0  0  0  0  0  0  0  0  0  0  0
    6.4550   46.5300   34.6950 C   0  0  0  0  0  0  0  0  0  0  0  0
    6.5840   47.7910   36.9670 C   0  0  0  0  0  0  0  0  0  0  0  0
    7.1910   46.9440   37.9110 C   0  0  0  0  0  0  0  0  0  0  0  0
    9.4070   46.9780   43.5090 O   0  0  0  0  0  0  0  0  0  0  0  0
    8.7880   46.9040   44.7780 C   0  0  0  0  0  0  0  0  0  0  0  0
    7.4500   47.6600   44.8150 C   0  0  1  0  0  0  0  0  0  0  0  0
    6.4310   46.8040   45.5360 N   0  0  0  0  0  0  0  0  0  0  0  0
    6.6680   46.6490   46.5230 H   0  0  0  0  0  0  0  0  0  0  0  0
    6.3630   45.8700   45.1000 H   0  0  0  0  0  0  0  0  0  0  0  0
    5.4870   47.2130   45.4740 H   0  0  0  0  0  0  0  0  0  0  0  0
    7.6330   48.9970   45.5390 C   0  0  0  0  0  0  0  0  0  0  0  0
    7.5760   50.1880   44.6220 C   0  0  0  0  0  0  0  0  0  0  0  0
    7.4980   50.0080   43.2370 C   0  0  0  0  0  0  0  0  0  0  0  0
    7.4700   51.1160   42.3930 C   0  0  0  0  0  0  0  0  0  0  0  0
    7.5020   52.4040   42.9250 C   0  0  0  0  0  0  0  0  0  0  0  0
    7.4750   53.8990   41.7820 Br  0  0  0  0  0  0  0  0  0  0  0  0
    7.5670   52.5890   44.3010 C   0  0  0  0  0  0  0  0  0  0  0  0
    7.6110   51.4870   45.1480 C   0  0  0  0  0  0  0  0  0  0  0  0
  1 18  1  0  0  0  0
  2  1  2  0  0  0  0
  3  2  1  0  0  0  0
  4  3  2  0  0  0  0
  4  5  1  0  0  0  0
  5  6  2  0  0  0  0
  6  1  1  0  0  0  0
  7  8  1  0  0  0  0
  7  3  1  0  0  0  0
  9  8  2  0  0  0  0
 10  9  1  0  0  0  0
 11 10  1  0  0  0  0
 12 11  1  0  0  0  0
 13 14  2  0  0  0  0
 13 11  1  0  0  0  0
 14 16  1  0  0  0  0
 15 14  1  0  0  0  0
 16 10  2  0  0  0  0
 16 17  1  0  0  0  0
 17  7  2  0  0  0  0
 18 19  1  0  0  0  0
 20 19  1  1  0  0  0
 20 21  1  0  0  0  0
 20 25  1  0  0  0  0
 21 22  1  0  0  0  0
 23 21  1  0  0  0  0
 24 21  1  0  0  0  0
 26 32  1  0  0  0  0
 26 25  1  0  0  0  0
 27 26  2  0  0  0  0
 28 29  2  0  0  0  0
 28 27  1  0  0  0  0
 29 31  1  0  0  0  0
 30 29  1  0  0  0  0
 31 32  2  0  0  0  0
M  END
>  <minimizedAffinity>
-9.12775135

$$$$

 OpenBabel12271914563D

 32 35  0  0  1  0  0  0  0  0999 V2000
    7.8340   46.2810   39.8850 C   0  0  0  0  0  0  0  0  0  0  0  0
    8.0830   46.6520   41.2010 C   0  0  0  0  0  0  0  0  0  0  0  0
    8.7200   45.8270   42.1130 C   0  0  0  0  0  0  0  0  0  0  0  0
    9.0470   44.5580   41.6290 C   0  0  0  0  0  0  0  0  0  0  0  0
    8.8180   44.1310   40.3580 N   0  0  0  0  0  0  0  0  0  0  0  0
    8.2440   45.0080   39.4900 C   0  0  0  0  0  0  0  0  0  0  0  0
    9.0130   46.2900   43.4790 C   0  0  0  0  0  0  0  0  0  0  0  0
    9.1310   47.6550   43.7720 C   0  0  0  0  0  0  0  0  0  0  0  0
    9.3840   48.1430   45.0600 C   0  0  0  0  0  0  0  0  0  0  0  0
    9.5420   47.2020   46.0710 C   0  0  0  0  0  0  0  0  0  0  0  0
    9.8120   47.3280   47.4100 N   0  0  0  0  0  0  0  0  0  0  0  0
    9.9500   48.1710   47.9490 H   0  0  0  0  0  0  0  0  0  0  0  0
    9.8810   46.1580   48.0460 N   0  0  0  0  0  0  0  0  0  0  0  0
    9.6540   45.2440   47.1020 C   0  0  0  0  0  0  0  0  0  0  0  0
    9.6380   43.7920   47.4200 C   0  0  0  0  0  0  0  0  0  0  0  0
    9.4370   45.8470   45.8370 C   0  0  0  0  0  0  0  0  0  0  0  0
    9.1660   45.3810   44.5390 C   0  0  0  0  0  0  0  0  0  0  0  0
    7.1440   47.2330   39.2150 O   0  0  0  0  0  0  0  0  0  0  0  0
    7.7690   48.2950   38.5230 C   0  0  0  0  0  0  0  0  0  0  0  0
    6.9450   49.5920   38.5850 C   0  0  1  0  0  0  0  0  0  0  0  0
    6.0550   49.6590   37.3630 N   0  0  0  0  0  0  0  0  0  0  0  0
    5.3550   48.9080   37.3380 H   0  0  0  0  0  0  0  0  0  0  0  0
    6.6140   49.5670   36.4980 H   0  0  0  0  0  0  0  0  0  0  0  0
    5.5790   50.5700   37.2950 H   0  0  0  0  0  0  0  0  0  0  0  0
    6.1010   49.6060   39.8620 C   0  0  0  0  0  0  0  0  0  0  0  0
    6.6050   50.5650   40.9040 C   0  0  0  0  0  0  0  0  0  0  0  0
    6.9070   50.1110   42.1930 C   0  0  0  0  0  0  0  0  0  0  0  0
    7.3500   51.0100   43.1600 C   0  0  0  0  0  0  0  0  0  0  0  0
    7.5120   52.3580   42.8430 C   0  0  0  0  0  0  0  0  0  0  0  0
    8.1010   53.5730   44.1560 Br  0  0  0  0  0  0  0  0  0  0  0  0
    7.2260   52.8130   41.5620 C   0  0  0  0  0  0  0  0  0  0  0  0
    6.7670   51.9230   40.5960 C   0  0  0  0  0  0  0  0  0  0  0  0
  1  2  1  0  0  0  0
  2  3  2  0  0  0  0
  3  7  1  0  0  0  0
  4  3  1  0  0  0  0
  5  4  2  0  0  0  0
  6  1  2  0  0  0  0
  6  5  1  0  0  0  0
  7  8  2  0  0  0  0
  7 17  1  0  0  0  0
  8  9  1  0  0  0  0
  9 10  2  0  0  0  0
 10 11  1  0  0  0  0
 11 12  1  0  0  0  0
 11 13  1  0  0  0  0
 14 15  1  0  0  0  0
 14 13  2  0  0  0  0
 16 10  1  0  0  0  0
 16 14  1  0  0  0  0
 17 16  2  0  0  0  0
 18  1  1  0  0  0  0
 19 18  1  0  0  0  0
 20 19  1  6  0  0  0
 20 25  1  0  0  0  0
 21 20  1  0  0  0  0
 22 21  1  0  0  0  0
 23 21  1  0  0  0  0
 24 21  1  0  0  0  0
 25 26  1  0  0  0  0
 26 27  1  0  0  0  0
 27 28  2  0  0  0  0
 29 28  1  0  0  0  0
 29 30  1  0  0  0  0
 31 29  2  0  0  0  0
 32 26  2  0  0  0  0
 32 31  1  0  0  0  0
M  END
>  <minimizedAffinity>
-9.07044792

$$$$

 OpenBabel12271914563D

 32 35  0  0  1  0  0  0  0  0999 V2000
    7.6320   45.9010   44.4560 C   0  0  0  0  0  0  0  0  0  0  0  0
    7.4090   47.0760   43.7480 C   0  0  0  0  0  0  0  0  0  0  0  0
    7.7430   48.3290   44.2360 C   0  0  0  0  0  0  0  0  0  0  0  0
    8.2720   48.3350   45.5280 C   0  0  0  0  0  0  0  0  0  0  0  0
    8.5010   47.2210   46.2760 N   0  0  0  0  0  0  0  0  0  0  0  0
    8.2100   46.0140   45.7190 C   0  0  0  0  0  0  0  0  0  0  0  0
    7.5410   49.5390   43.4220 C   0  0  0  0  0  0  0  0  0  0  0  0
    7.0230   49.4600   42.1230 C   0  0  0  0  0  0  0  0  0  0  0  0
    6.7900   50.5850   41.3210 C   0  0  0  0  0  0  0  0  0  0  0  0
    7.1190   51.8230   41.8610 C   0  0  0  0  0  0  0  0  0  0  0  0
    7.0410   53.0960   41.3560 N   0  0  0  0  0  0  0  0  0  0  0  0
    6.7080   53.3960   40.4520 H   0  0  0  0  0  0  0  0  0  0  0  0
    7.4600   54.0280   42.2120 N   0  0  0  0  0  0  0  0  0  0  0  0
    7.8250   53.3510   43.3010 C   0  0  0  0  0  0  0  0  0  0  0  0
    8.3480   54.0490   44.5060 C   0  0  0  0  0  0  0  0  0  0  0  0
    7.6330   51.9560   43.1340 C   0  0  0  0  0  0  0  0  0  0  0  0
    7.8420   50.8140   43.9270 C   0  0  0  0  0  0  0  0  0  0  0  0
    7.1610   44.8190   43.7940 O   0  0  0  0  0  0  0  0  0  0  0  0
    7.9870   43.9610   43.0320 C   0  0  0  0  0  0  0  0  0  0  0  0
    8.8410   44.7310   42.0130 C   0  0  1  0  0  0  0  0  0  0  0  0
   10.2970   44.5990   42.4030 N   0  0  0  0  0  0  0  0  0  0  0  0
   10.6380   43.6330   42.3490 H   0  0  0  0  0  0  0  0  0  0  0  0
   10.4440   44.9080   43.3790 H   0  0  0  0  0  0  0  0  0  0  0  0
   10.8970   45.2050   41.8240 H   0  0  0  0  0  0  0  0  0  0  0  0
    8.6100   44.1610   40.6110 C   0  0  0  0  0  0  0  0  0  0  0  0
    8.1020   45.1770   39.6260 C   0  0  0  0  0  0  0  0  0  0  0  0
    7.9500   46.5150   40.0080 C   0  0  0  0  0  0  0  0  0  0  0  0
    7.4550   47.4460   39.0980 C   0  0  0  0  0  0  0  0  0  0  0  0
    7.1290   47.0530   37.8000 C   0  0  0  0  0  0  0  0  0  0  0  0
    6.4500   48.3110   36.5750 Br  0  0  0  0  0  0  0  0  0  0  0  0
    7.2890   45.7290   37.4110 C   0  0  0  0  0  0  0  0  0  0  0  0
    7.7670   44.7910   38.3210 C   0  0  0  0  0  0  0  0  0  0  0  0
  1  6  2  0  0  0  0
  2  3  2  0  0  0  0
  2  1  1  0  0  0  0
  3  4  1  0  0  0  0
  4  5  2  0  0  0  0
  6  5  1  0  0  0  0
  7 17  1  0  0  0  0
  7  3  1  0  0  0  0
  8  7  2  0  0  0  0
  9 10  2  0  0  0  0
  9  8  1  0  0  0  0
 10 16  1  0  0  0  0
 11 10  1  0  0  0  0
 11 13  1  0  0  0  0
 12 11  1  0  0  0  0
 13 14  2  0  0  0  0
 14 15  1  0  0  0  0
 16 14  1  0  0  0  0
 16 17  2  0  0  0  0
 18  1  1  0  0  0  0
 19 18  1  0  0  0  0
 20 25  1  6  0  0  0
 20 21  1  0  0  0  0
 20 19  1  0  0  0  0
 21 23  1  0  0  0  0
 22 21  1  0  0  0  0
 24 21  1  0  0  0  0
 26 27  1  0  0  0  0
 26 25  1  0  0  0  0
 28 27  2  0  0  0  0
 29 28  1  0  0  0  0
 30 29  1  0  0  0  0
 31 29  2  0  0  0  0
 31 32  1  0  0  0  0
 32 26  2  0  0  0  0
M  END
>  <minimizedAffinity>
-9.04318142

$$$$

 OpenBabel12271914563D

 32 35  0  0  1  0  0  0  0  0999 V2000
    8.4840   45.8590   38.7180 C   0  0  0  0  0  0  0  0  0  0  0  0
    8.5440   45.7460   40.1020 C   0  0  0  0  0  0  0  0  0  0  0  0
    8.6190   44.5290   40.7590 C   0  0  0  0  0  0  0  0  0  0  0  0
    8.5720   43.4080   39.9280 C   0  0  0  0  0  0  0  0  0  0  0  0
    8.4990   43.4530   38.5700 N   0  0  0  0  0  0  0  0  0  0  0  0
    8.4900   44.6780   37.9780 C   0  0  0  0  0  0  0  0  0  0  0  0
    8.7400   44.4650   42.2250 C   0  0  0  0  0  0  0  0  0  0  0  0
    8.6610   43.2440   42.9070 C   0  0  0  0  0  0  0  0  0  0  0  0
    8.7950   43.1320   44.2960 C   0  0  0  0  0  0  0  0  0  0  0  0
    8.9960   44.3100   45.0080 C   0  0  0  0  0  0  0  0  0  0  0  0
    9.1450   44.5600   46.3480 N   0  0  0  0  0  0  0  0  0  0  0  0
    9.1430   43.9040   47.1160 H   0  0  0  0  0  0  0  0  0  0  0  0
    9.3240   45.8520   46.6260 N   0  0  0  0  0  0  0  0  0  0  0  0
    9.2870   46.4630   45.4410 C   0  0  0  0  0  0  0  0  0  0  0  0
    9.4620   47.9340   45.3250 C   0  0  0  0  0  0  0  0  0  0  0  0
    9.0800   45.5380   44.3860 C   0  0  0  0  0  0  0  0  0  0  0  0
    8.9590   45.6240   42.9880 C   0  0  0  0  0  0  0  0  0  0  0  0
    8.3510   47.1470   38.3240 O   0  0  0  0  0  0  0  0  0  0  0  0
    7.1050   47.7330   38.0070 C   0  0  0  0  0  0  0  0  0  0  0  0
    6.9080   49.0900   38.7010 C   0  0  1  0  0  0  0  0  0  0  0  0
    6.0080   49.9480   37.8390 N   0  0  0  0  0  0  0  0  0  0  0  0
    5.0600   49.5640   37.7480 H   0  0  0  0  0  0  0  0  0  0  0  0
    6.3860   50.0280   36.8810 H   0  0  0  0  0  0  0  0  0  0  0  0
    5.9510   50.9120   38.2000 H   0  0  0  0  0  0  0  0  0  0  0  0
    6.2810   48.8760   40.0820 C   0  0  0  0  0  0  0  0  0  0  0  0
    6.6850   49.9150   41.0910 C   0  0  0  0  0  0  0  0  0  0  0  0
    7.1250   49.5300   42.3620 C   0  0  0  0  0  0  0  0  0  0  0  0
    7.4740   50.4990   43.3000 C   0  0  0  0  0  0  0  0  0  0  0  0
    7.4030   51.8520   42.9700 C   0  0  0  0  0  0  0  0  0  0  0  0
    7.8650   53.1590   44.2430 Br  0  0  0  0  0  0  0  0  0  0  0  0
    6.9780   52.2400   41.7060 C   0  0  0  0  0  0  0  0  0  0  0  0
    6.6130   51.2780   40.7700 C   0  0  0  0  0  0  0  0  0  0  0  0
  1  2  2  0  0  0  0
  2  3  1  0  0  0  0
  3  7  1  0  0  0  0
  4  3  2  0  0  0  0
  5  4  1  0  0  0  0
  6  5  2  0  0  0  0
  6  1  1  0  0  0  0
  7  8  2  0  0  0  0
  7 17  1  0  0  0  0
  8  9  1  0  0  0  0
  9 10  2  0  0  0  0
 10 11  1  0  0  0  0
 11 13  1  0  0  0  0
 11 12  1  0  0  0  0
 14 13  2  0  0  0  0
 15 14  1  0  0  0  0
 16 10  1  0  0  0  0
 16 14  1  0  0  0  0
 17 16  2  0  0  0  0
 18  1  1  0  0  0  0
 19 18  1  0  0  0  0
 20 19  1  6  0  0  0
 20 25  1  0  0  0  0
 21 24  1  0  0  0  0
 21 20  1  0  0  0  0
 22 21  1  0  0  0  0
 23 21  1  0  0  0  0
 25 26  1  0  0  0  0
 26 27  1  0  0  0  0
 27 28  2  0  0  0  0
 29 28  1  0  0  0  0
 29 30  1  0  0  0  0
 31 29  2  0  0  0  0
 32 26  2  0  0  0  0
 32 31  1  0  0  0  0
M  END
>  <minimizedAffinity>
-8.78545761

$$$$

 OpenBabel12271914563D

 32 35  0  0  1  0  0  0  0  0999 V2000
    7.2720   46.8410   44.6590 C   0  0  0  0  0  0  0  0  0  0  0  0
    7.2560   48.1080   44.0860 C   0  0  0  0  0  0  0  0  0  0  0  0
    7.2750   48.3200   42.7170 C   0  0  0  0  0  0  0  0  0  0  0  0
    7.3690   47.1610   41.9430 C   0  0  0  0  0  0  0  0  0  0  0  0
    7.4020   45.8960   42.4440 N   0  0  0  0  0  0  0  0  0  0  0  0
    7.3190   45.7490   43.7940 C   0  0  0  0  0  0  0  0  0  0  0  0
    7.1970   49.6800   42.1590 C   0  0  0  0  0  0  0  0  0  0  0  0
    6.7460   49.9030   40.8520 C   0  0  0  0  0  0  0  0  0  0  0  0
    6.6320   51.1800   40.2880 C   0  0  0  0  0  0  0  0  0  0  0  0
    7.0120   52.2560   41.0820 C   0  0  0  0  0  0  0  0  0  0  0  0
    7.0460   53.6060   40.8440 N   0  0  0  0  0  0  0  0  0  0  0  0
    6.7830   54.1060   40.0070 H   0  0  0  0  0  0  0  0  0  0  0  0
    7.4790   54.3140   41.8880 N   0  0  0  0  0  0  0  0  0  0  0  0
    7.7380   53.4060   42.8300 C   0  0  0  0  0  0  0  0  0  0  0  0
    8.2400   53.8070   44.1710 C   0  0  0  0  0  0  0  0  0  0  0  0
    7.4640   52.0920   42.3740 C   0  0  0  0  0  0  0  0  0  0  0  0
    7.5540   50.8020   42.9250 C   0  0  0  0  0  0  0  0  0  0  0  0
    7.3140   46.9010   46.0090 O   0  0  0  0  0  0  0  0  0  0  0  0
    8.4660   47.2920   46.7300 C   0  0  0  0  0  0  0  0  0  0  0  0
    8.4930   46.6970   48.1470 C   0  0  1  0  0  0  0  0  0  0  0  0
    8.3420   45.1950   48.0440 N   0  0  0  0  0  0  0  0  0  0  0  0
    9.1290   44.7470   47.5600 H   0  0  0  0  0  0  0  0  0  0  0  0
    7.4910   44.9480   47.5110 H   0  0  0  0  0  0  0  0  0  0  0  0
    8.2260   44.7650   48.9740 H   0  0  0  0  0  0  0  0  0  0  0  0
    9.8150   47.0560   48.8320 C   0  0  0  0  0  0  0  0  0  0  0  0
    9.6480   47.5160   50.2530 C   0  0  0  0  0  0  0  0  0  0  0  0
   10.7710   47.8030   51.0380 C   0  0  0  0  0  0  0  0  0  0  0  0
   10.6100   48.2050   52.3610 C   0  0  0  0  0  0  0  0  0  0  0  0
    9.3320   48.3410   52.9020 C   0  0  0  0  0  0  0  0  0  0  0  0
    9.1180   48.8740   54.6950 Br  0  0  0  0  0  0  0  0  0  0  0  0
    8.2130   48.0690   52.1250 C   0  0  0  0  0  0  0  0  0  0  0  0
    8.3680   47.6510   50.8070 C   0  0  0  0  0  0  0  0  0  0  0  0
  1 18  1  0  0  0  0
  2  1  1  0  0  0  0
  3  2  2  0  0  0  0
  4  5  2  0  0  0  0
  4  3  1  0  0  0  0
  5  6  1  0  0  0  0
  6  1  2  0  0  0  0
  7  3  1  0  0  0  0
  7 17  2  0  0  0  0
  8  7  1  0  0  0  0
  9  8  2  0  0  0  0
  9 10  1  0  0  0  0
 10 16  2  0  0  0  0
 11 10  1  0  0  0  0
 11 13  1  0  0  0  0
 12 11  1  0  0  0  0
 13 14  2  0  0  0  0
 14 15  1  0  0  0  0
 16 14  1  0  0  0  0
 16 17  1  0  0  0  0
 18 19  1  0  0  0  0
 20 19  1  6  0  0  0
 20 25  1  0  0  0  0
 21 20  1  0  0  0  0
 21 24  1  0  0  0  0
 22 21  1  0  0  0  0
 23 21  1  0  0  0  0
 25 26  1  0  0  0  0
 26 32  2  0  0  0  0
 26 27  1  0  0  0  0
 27 28  2  0  0  0  0
 28 29  1  0  0  0  0
 29 30  1  0  0  0  0
 31 29  2  0  0  0  0
 32 31  1  0  0  0  0
M  END
>  <minimizedAffinity>
-8.73952675

$$$$

 OpenBabel12271914563D

 32 35  0  0  1  0  0  0  0  0999 V2000
    8.0490   50.4510   44.5100 C   0  0  0  0  0  0  0  0  0  0  0  0
    7.6980   50.1290   43.2040 C   0  0  0  0  0  0  0  0  0  0  0  0
    7.0390   51.0070   42.3590 C   0  0  0  0  0  0  0  0  0  0  0  0
    6.6970   52.2320   42.9340 C   0  0  0  0  0  0  0  0  0  0  0  0
    7.0000   52.6010   44.2080 N   0  0  0  0  0  0  0  0  0  0  0  0
    7.7020   51.7200   44.9710 C   0  0  0  0  0  0  0  0  0  0  0  0
    6.7410   50.6370   40.9650 C   0  0  0  0  0  0  0  0  0  0  0  0
    6.1860   51.5630   40.0730 C   0  0  0  0  0  0  0  0  0  0  0  0
    5.9100   51.2650   38.7320 C   0  0  0  0  0  0  0  0  0  0  0  0
    6.1920   49.9730   38.3030 C   0  0  0  0  0  0  0  0  0  0  0  0
    6.0310   49.3520   37.0910 N   0  0  0  0  0  0  0  0  0  0  0  0
    5.6630   49.7330   36.2310 H   0  0  0  0  0  0  0  0  0  0  0  0
    6.4380   48.0820   37.0920 N   0  0  0  0  0  0  0  0  0  0  0  0
    6.8720   47.8650   38.3340 C   0  0  0  0  0  0  0  0  0  0  0  0
    7.4240   46.5450   38.7390 C   0  0  0  0  0  0  0  0  0  0  0  0
    6.7380   49.0230   39.1410 C   0  0  0  0  0  0  0  0  0  0  0  0
    7.0220   49.3510   40.4780 C   0  0  0  0  0  0  0  0  0  0  0  0
    8.6240   49.4070   45.1490 O   0  0  0  0  0  0  0  0  0  0  0  0
    9.4110   48.4360   44.4870 C   0  0  0  0  0  0  0  0  0  0  0  0
    9.3610   47.0710   45.1920 C   0  0  1  0  0  0  0  0  0  0  0  0
    9.6420   45.9890   44.1720 N   0  0  0  0  0  0  0  0  0  0  0  0
   10.5900   46.0450   43.7820 H   0  0  0  0  0  0  0  0  0  0  0  0
    8.9910   46.0620   43.3720 H   0  0  0  0  0  0  0  0  0  0  0  0
    9.4930   45.0500   44.5700 H   0  0  0  0  0  0  0  0  0  0  0  0
   10.4030   47.0320   46.3130 C   0  0  0  0  0  0  0  0  0  0  0  0
    9.8070   47.1210   47.6900 C   0  0  0  0  0  0  0  0  0  0  0  0
    8.4240   46.9930   47.8700 C   0  0  0  0  0  0  0  0  0  0  0  0
    7.8770   47.1020   49.1460 C   0  0  0  0  0  0  0  0  0  0  0  0
    8.7030   47.3190   50.2480 C   0  0  0  0  0  0  0  0  0  0  0  0
    7.9580   47.4760   51.9700 Br  0  0  0  0  0  0  0  0  0  0  0  0
   10.0770   47.4350   50.0780 C   0  0  0  0  0  0  0  0  0  0  0  0
   10.6280   47.3430   48.8040 C   0  0  0  0  0  0  0  0  0  0  0  0
  1  6  1  0  0  0  0
  1 18  1  0  0  0  0
  2  1  2  0  0  0  0
  3  4  2  0  0  0  0
  3  2  1  0  0  0  0
  4  5  1  0  0  0  0
  5  6  2  0  0  0  0
  7  3  1  0  0  0  0
  8  7  2  0  0  0  0
  9  8  1  0  0  0  0
 10  9  2  0  0  0  0
 10 16  1  0  0  0  0
 11 13  1  0  0  0  0
 11 10  1  0  0  0  0
 12 11  1  0  0  0  0
 13 14  2  0  0  0  0
 14 15  1  0  0  0  0
 14 16  1  0  0  0  0
 16 17  2  0  0  0  0
 17  7  1  0  0  0  0
 19 18  1  0  0  0  0
 20 19  1  6  0  0  0
 20 25  1  0  0  0  0
 21 24  1  0  0  0  0
 21 20  1  0  0  0  0
 22 21  1  0  0  0  0
 23 21  1  0  0  0  0
 25 26  1  0  0  0  0
 26 27  2  0  0  0  0
 26 32  1  0  0  0  0
 27 28  1  0  0  0  0
 28 29  2  0  0  0  0
 29 30  1  0  0  0  0
 31 29  1  0  0  0  0
 32 31  2  0  0  0  0
M  END
>  <minimizedAffinity>
-8.65525246

$$$$

 OpenBabel12271914563D

 32 35  0  0  1  0  0  0  0  0999 V2000
    7.8460   50.2510   44.6740 C   0  0  0  0  0  0  0  0  0  0  0  0
    7.5110   49.9670   43.3550 C   0  0  0  0  0  0  0  0  0  0  0  0
    7.0320   50.9210   42.4730 C   0  0  0  0  0  0  0  0  0  0  0  0
    6.8520   52.1920   43.0230 C   0  0  0  0  0  0  0  0  0  0  0  0
    7.1480   52.5300   44.3080 N   0  0  0  0  0  0  0  0  0  0  0  0
    7.6740   51.5640   45.1090 C   0  0  0  0  0  0  0  0  0  0  0  0
    6.7470   50.5810   41.0690 C   0  0  0  0  0  0  0  0  0  0  0  0
    6.2050   51.5270   40.1900 C   0  0  0  0  0  0  0  0  0  0  0  0
    5.9400   51.2570   38.8420 C   0  0  0  0  0  0  0  0  0  0  0  0
    6.2210   49.9720   38.3890 C   0  0  0  0  0  0  0  0  0  0  0  0
    6.0690   49.3760   37.1640 N   0  0  0  0  0  0  0  0  0  0  0  0
    5.7120   49.7760   36.3080 H   0  0  0  0  0  0  0  0  0  0  0  0
    6.4700   48.1040   37.1430 N   0  0  0  0  0  0  0  0  0  0  0  0
    6.8910   47.8610   38.3850 C   0  0  0  0  0  0  0  0  0  0  0  0
    7.4330   46.5310   38.7690 C   0  0  0  0  0  0  0  0  0  0  0  0
    6.7540   49.0030   39.2130 C   0  0  0  0  0  0  0  0  0  0  0  0
    7.0260   49.3030   40.5590 C   0  0  0  0  0  0  0  0  0  0  0  0
    8.2280   49.1410   45.3470 O   0  0  0  0  0  0  0  0  0  0  0  0
    8.0460   47.8330   44.8430 C   0  0  0  0  0  0  0  0  0  0  0  0
    9.3780   47.0850   44.6740 C   0  0  1  0  0  0  0  0  0  0  0  0
   10.3590   47.6060   45.7020 N   0  0  0  0  0  0  0  0  0  0  0  0
   10.0690   47.4040   46.6660 H   0  0  0  0  0  0  0  0  0  0  0  0
   10.4520   48.6330   45.6330 H   0  0  0  0  0  0  0  0  0  0  0  0
   11.3040   47.2270   45.5450 H   0  0  0  0  0  0  0  0  0  0  0  0
    9.1540   45.5820   44.8620 C   0  0  0  0  0  0  0  0  0  0  0  0
    8.8380   44.8590   43.5820 C   0  0  0  0  0  0  0  0  0  0  0  0
    7.9410   43.7840   43.5830 C   0  0  0  0  0  0  0  0  0  0  0  0
    7.6720   43.1030   42.3990 C   0  0  0  0  0  0  0  0  0  0  0  0
    8.2790   43.5000   41.2080 C   0  0  0  0  0  0  0  0  0  0  0  0
    7.9210   42.5700   39.6110 Br  0  0  0  0  0  0  0  0  0  0  0  0
    9.1610   44.5730   41.1980 C   0  0  0  0  0  0  0  0  0  0  0  0
    9.4460   45.2480   42.3810 C   0  0  0  0  0  0  0  0  0  0  0  0
  1  6  1  0  0  0  0
  1 18  1  0  0  0  0
  2  1  2  0  0  0  0
  3  4  2  0  0  0  0
  3  2  1  0  0  0  0
  4  5  1  0  0  0  0
  5  6  2  0  0  0  0
  7  3  1  0  0  0  0
  8  7  2  0  0  0  0
  9  8  1  0  0  0  0
 10  9  2  0  0  0  0
 10 16  1  0  0  0  0
 11 10  1  0  0  0  0
 12 11  1  0  0  0  0
 13 11  1  0  0  0  0
 13 14  2  0  0  0  0
 14 15  1  0  0  0  0
 14 16  1  0  0  0  0
 16 17  2  0  0  0  0
 17  7  1  0  0  0  0
 19 18  1  0  0  0  0
 20 19  1  1  0  0  0
 20 25  1  0  0  0  0
 20 21  1  0  0  0  0
 21 22  1  0  0  0  0
 23 21  1  0  0  0  0
 24 21  1  0  0  0  0
 26 27  1  0  0  0  0
 26 25  1  0  0  0  0
 28 27  2  0  0  0  0
 29 28  1  0  0  0  0
 30 29  1  0  0  0  0
 31 29  2  0  0  0  0
 31 32  1  0  0  0  0
 32 26  2  0  0  0  0
M  END
>  <minimizedAffinity>
-8.5974617

$$$$
