
 OpenBabel12271915073D

 37 41  0  0  1  0  0  0  0  0999 V2000
    8.4440   47.6890   45.5850 C   0  0  2  0  0  0  0  0  0  0  0  0
    9.4750   47.6980   46.6180 O   0  0  0  0  0  0  0  0  0  0  0  0
    9.2680   47.0610   47.8010 C   0  0  0  0  0  0  0  0  0  0  0  0
   10.2120   46.6240   48.4250 O   0  0  0  0  0  0  0  0  0  0  0  0
    7.8710   46.9360   48.2320 C   0  0  1  0  0  0  0  0  0  0  0  0
    6.8090   47.4210   47.5340 C   0  0  0  0  0  0  0  0  0  0  0  0
    5.6190   47.3190   47.8150 O   0  0  0  0  0  0  0  0  0  0  0  0
    7.1440   48.1630   46.1800 C   0  0  0  0  0  0  0  0  0  0  0  0
    8.3550   46.2500   45.1200 C   0  0  0  0  0  0  0  0  0  0  0  0
    9.6010   45.8030   44.3600 C   0  0  0  0  0  0  0  0  0  0  0  0
    9.1010   44.4960   43.7930 C   0  0  0  0  0  0  0  0  0  0  0  0
    7.7790   44.9180   43.1670 C   0  0  0  0  0  0  0  0  0  0  0  0
    7.1820   45.8210   44.2390 C   0  0  0  0  0  0  0  0  0  0  0  0
    7.5170   46.2160   49.5240 C   0  0  0  0  0  0  0  0  0  0  0  0
    7.6350   47.1080   50.7640 C   0  0  0  0  0  0  0  0  0  0  0  0
    6.9430   48.2690   50.9860 N   0  0  0  0  0  0  0  0  0  0  0  0
    7.3650   48.6780   52.2040 C   0  0  0  0  0  0  0  0  0  0  0  0
    7.0150   49.7870   52.9750 N   0  0  0  0  0  0  0  0  0  0  0  0
    7.5440   49.9740   54.1320 C   0  0  0  0  0  0  0  0  0  0  0  0
    7.1940   51.1730   55.0150 C   0  0  0  0  0  0  0  0  0  0  0  0
    8.5440   49.0370   54.6850 C   0  0  0  0  0  0  0  0  0  0  0  0
    8.8670   47.9790   53.9400 C   0  0  0  0  0  0  0  0  0  0  0  0
    9.8710   46.9900   54.4190 C   0  0  0  0  0  0  0  0  0  0  0  0
    8.2610   47.8000   52.6690 N   0  0  0  0  0  0  0  0  0  0  0  0
    8.4300   46.7990   51.7670 N   0  0  0  0  0  0  0  0  0  0  0  0
    8.9710   48.6790   44.5220 C   0  0  0  0  0  0  0  0  0  0  0  0
    8.3990   50.0920   44.5030 C   0  0  0  0  0  0  0  0  0  0  0  0
    6.7140   49.4740   41.2030 C   0  0  0  0  0  0  0  0  0  0  0  0
    6.6640   50.7030   40.6580 N   0  0  0  0  0  0  0  0  0  0  0  0
    7.1820   51.7540   41.3730 C   0  0  0  0  0  0  0  0  0  0  0  0
    7.7380   51.5920   42.5910 C   0  0  0  0  0  0  0  0  0  0  0  0
    7.7960   50.3270   43.1640 C   0  0  0  0  0  0  0  0  0  0  0  0
    7.2740   49.2500   42.4230 C   0  0  0  0  0  0  0  0  0  0  0  0
    7.2420   47.2210   40.4070 C   0  0  0  0  0  0  0  0  0  0  0  0
    6.1730   48.2980   40.4180 C   0  0  0  0  0  0  0  0  0  0  0  0
    7.1090   53.1400   40.7460 C   0  0  0  0  0  0  0  0  0  0  0  0
    7.7650   54.1460   41.6600 C   0  0  0  0  0  0  0  0  0  0  0  0
  1 26  1  6  0  0  0
  1  8  1  0  0  0  0
  1  2  1  0  0  0  0
  2  3  1  0  0  0  0
  3  5  1  0  0  0  0
  3  4  2  0  0  0  0
  5 14  1  6  0  0  0
  6  7  2  0  0  0  0
  6  5  1  0  0  0  0
  8  6  1  0  0  0  0
  9  1  1  0  0  0  0
 10  9  1  0  0  0  0
 11 10  1  0  0  0  0
 12 11  1  0  0  0  0
 12 13  1  0  0  0  0
 13  9  1  0  0  0  0
 14 15  1  0  0  0  0
 15 16  2  0  0  0  0
 15 25  2  0  0  0  0
 16 17  2  0  0  0  0
 17 24  1  0  0  0  0
 17 18  2  0  0  0  0
 18 19  2  0  0  0  0
 19 21  1  0  0  0  0
 19 20  1  0  0  0  0
 22 23  1  0  0  0  0
 22 21  2  0  0  0  0
 24 22  1  0  0  0  0
 25 24  1  0  0  0  0
 27 26  1  0  0  0  0
 28 33  1  0  0  0  0
 29 28  2  0  0  0  0
 29 30  2  0  0  0  0
 30 31  1  0  0  0  0
 31 32  2  0  0  0  0
 32 27  1  0  0  0  0
 33 32  1  0  0  0  0
 34 35  1  0  0  0  0
 35 28  1  0  0  0  0
 36 30  1  0  0  0  0
 36 37  1  0  0  0  0
M  END
>  <minimizedAffinity>
-10.5051193

$$$$

 OpenBabel12271915073D

 37 41  0  0  1  0  0  0  0  0999 V2000
    8.5770   47.5670   44.4630 C   0  0  2  0  0  0  0  0  0  0  0  0
    9.7450   47.8390   45.2930 O   0  0  0  0  0  0  0  0  0  0  0  0
    9.8910   47.2240   46.4970 C   0  0  0  0  0  0  0  0  0  0  0  0
   11.0010   47.0250   46.9420 O   0  0  0  0  0  0  0  0  0  0  0  0
    8.6510   46.8240   47.1720 C   0  0  1  0  0  0  0  0  0  0  0  0
    7.4040   47.0420   46.6750 C   0  0  0  0  0  0  0  0  0  0  0  0
    6.3320   46.7030   47.1650 O   0  0  0  0  0  0  0  0  0  0  0  0
    7.3290   47.7800   45.2790 C   0  0  0  0  0  0  0  0  0  0  0  0
    8.7200   46.1230   44.0260 C   0  0  0  0  0  0  0  0  0  0  0  0
    9.5950   45.9730   42.7850 C   0  0  0  0  0  0  0  0  0  0  0  0
    9.3060   44.5320   42.4400 C   0  0  0  0  0  0  0  0  0  0  0  0
    7.7840   44.5080   42.4670 C   0  0  0  0  0  0  0  0  0  0  0  0
    7.4650   45.3050   43.7260 C   0  0  0  0  0  0  0  0  0  0  0  0
    8.6920   46.1010   48.5100 C   0  0  0  0  0  0  0  0  0  0  0  0
    8.3400   47.0050   49.6950 C   0  0  0  0  0  0  0  0  0  0  0  0
    7.0900   47.4790   49.9990 N   0  0  0  0  0  0  0  0  0  0  0  0
    7.2770   48.2040   51.1250 C   0  0  0  0  0  0  0  0  0  0  0  0
    6.3790   48.9220   51.9170 N   0  0  0  0  0  0  0  0  0  0  0  0
    6.7820   49.5370   52.9720 C   0  0  0  0  0  0  0  0  0  0  0  0
    5.8400   50.3360   53.8720 C   0  0  0  0  0  0  0  0  0  0  0  0
    8.2030   49.5210   53.3800 C   0  0  0  0  0  0  0  0  0  0  0  0
    9.0500   48.8290   52.6170 C   0  0  0  0  0  0  0  0  0  0  0  0
   10.4980   48.7660   52.9530 C   0  0  0  0  0  0  0  0  0  0  0  0
    8.5700   48.1560   51.4620 N   0  0  0  0  0  0  0  0  0  0  0  0
    9.2470   47.3910   50.5670 N   0  0  0  0  0  0  0  0  0  0  0  0
    8.6830   48.6000   43.3180 C   0  0  0  0  0  0  0  0  0  0  0  0
    7.4140   48.9680   42.5560 C   0  0  0  0  0  0  0  0  0  0  0  0
    7.0300   52.3840   41.0430 C   0  0  0  0  0  0  0  0  0  0  0  0
    7.2930   53.2020   42.0790 N   0  0  0  0  0  0  0  0  0  0  0  0
    7.5980   52.6370   43.2930 C   0  0  0  0  0  0  0  0  0  0  0  0
    7.6450   51.3020   43.4740 C   0  0  0  0  0  0  0  0  0  0  0  0
    7.3750   50.4480   42.4120 C   0  0  0  0  0  0  0  0  0  0  0  0
    7.0750   51.0290   41.1660 C   0  0  0  0  0  0  0  0  0  0  0  0
    6.0690   51.9080   38.8430 C   0  0  0  0  0  0  0  0  0  0  0  0
    6.7190   52.9880   39.6890 C   0  0  0  0  0  0  0  0  0  0  0  0
    7.8840   53.5760   44.4570 C   0  0  0  0  0  0  0  0  0  0  0  0
    7.5180   52.9010   45.7560 C   0  0  0  0  0  0  0  0  0  0  0  0
  1 26  1  6  0  0  0
  1  8  1  0  0  0  0
  1  2  1  0  0  0  0
  2  3  1  0  0  0  0
  3  4  2  0  0  0  0
  3  5  1  0  0  0  0
  5 14  1  6  0  0  0
  6  7  2  0  0  0  0
  6  5  1  0  0  0  0
  8  6  1  0  0  0  0
  9  1  1  0  0  0  0
 10  9  1  0  0  0  0
 11 12  1  0  0  0  0
 11 10  1  0  0  0  0
 12 13  1  0  0  0  0
 13  9  1  0  0  0  0
 14 15  1  0  0  0  0
 15 16  2  0  0  0  0
 15 25  2  0  0  0  0
 16 17  2  0  0  0  0
 17 24  1  0  0  0  0
 17 18  2  0  0  0  0
 18 19  2  0  0  0  0
 19 21  1  0  0  0  0
 19 20  1  0  0  0  0
 22 23  1  0  0  0  0
 22 21  2  0  0  0  0
 24 22  1  0  0  0  0
 25 24  1  0  0  0  0
 27 26  1  0  0  0  0
 28 33  1  0  0  0  0
 28 29  2  0  0  0  0
 29 30  2  0  0  0  0
 30 31  1  0  0  0  0
 30 36  1  0  0  0  0
 32 27  1  0  0  0  0
 32 31  2  0  0  0  0
 33 32  1  0  0  0  0
 34 35  1  0  0  0  0
 35 28  1  0  0  0  0
 36 37  1  0  0  0  0
M  END
>  <minimizedAffinity>
-10.5030222

$$$$

 OpenBabel12271915073D

 37 41  0  0  1  0  0  0  0  0999 V2000
    8.3810   47.7560   45.5550 C   0  0  2  0  0  0  0  0  0  0  0  0
    9.4460   47.7740   46.5530 O   0  0  0  0  0  0  0  0  0  0  0  0
    9.2950   47.1120   47.7310 C   0  0  0  0  0  0  0  0  0  0  0  0
   10.2700   46.6890   48.3150 O   0  0  0  0  0  0  0  0  0  0  0  0
    7.9160   46.9460   48.2060 C   0  0  1  0  0  0  0  0  0  0  0  0
    6.8190   47.4150   47.5530 C   0  0  0  0  0  0  0  0  0  0  0  0
    5.6430   47.2780   47.8710 O   0  0  0  0  0  0  0  0  0  0  0  0
    7.0910   48.1870   46.2010 C   0  0  0  0  0  0  0  0  0  0  0  0
    8.3110   46.3220   45.0680 C   0  0  0  0  0  0  0  0  0  0  0  0
    9.5890   45.8840   44.3590 C   0  0  0  0  0  0  0  0  0  0  0  0
    9.1140   44.5850   43.7540 C   0  0  0  0  0  0  0  0  0  0  0  0
    7.8220   45.0160   43.0750 C   0  0  0  0  0  0  0  0  0  0  0  0
    7.1780   45.9070   44.1310 C   0  0  0  0  0  0  0  0  0  0  0  0
    7.6240   46.1950   49.4970 C   0  0  0  0  0  0  0  0  0  0  0  0
    7.7150   47.0810   50.7430 C   0  0  0  0  0  0  0  0  0  0  0  0
    7.0290   48.2500   50.9490 N   0  0  0  0  0  0  0  0  0  0  0  0
    7.4190   48.6490   52.1810 C   0  0  0  0  0  0  0  0  0  0  0  0
    7.0590   49.7600   52.9450 N   0  0  0  0  0  0  0  0  0  0  0  0
    7.5540   49.9370   54.1190 C   0  0  0  0  0  0  0  0  0  0  0  0
    7.1920   51.1360   54.9950 C   0  0  0  0  0  0  0  0  0  0  0  0
    8.5260   48.9850   54.6980 C   0  0  0  0  0  0  0  0  0  0  0  0
    8.8590   47.9270   53.9590 C   0  0  0  0  0  0  0  0  0  0  0  0
    9.8360   46.9240   54.4640 C   0  0  0  0  0  0  0  0  0  0  0  0
    8.2900   47.7590   52.6690 N   0  0  0  0  0  0  0  0  0  0  0  0
    8.4740   46.7590   51.7690 N   0  0  0  0  0  0  0  0  0  0  0  0
    8.8470   48.7760   44.4920 C   0  0  0  0  0  0  0  0  0  0  0  0
    8.1510   50.1300   44.4350 C   0  0  0  0  0  0  0  0  0  0  0  0
    7.1990   51.7930   41.2050 C   0  0  0  0  0  0  0  0  0  0  0  0
    6.7120   50.7730   40.4750 N   0  0  0  0  0  0  0  0  0  0  0  0
    6.6930   49.5200   41.0380 C   0  0  0  0  0  0  0  0  0  0  0  0
    7.1410   49.2860   42.2880 C   0  0  0  0  0  0  0  0  0  0  0  0
    7.6460   50.3330   43.0510 C   0  0  0  0  0  0  0  0  0  0  0  0
    7.6520   51.6170   42.4760 C   0  0  0  0  0  0  0  0  0  0  0  0
    7.6780   54.1440   41.6890 C   0  0  0  0  0  0  0  0  0  0  0  0
    7.2020   53.1870   40.6120 C   0  0  0  0  0  0  0  0  0  0  0  0
    6.1480   48.3760   40.1960 C   0  0  0  0  0  0  0  0  0  0  0  0
    7.2170   47.3280   40.0070 C   0  0  0  0  0  0  0  0  0  0  0  0
  1 26  1  6  0  0  0
  1  8  1  0  0  0  0
  1  2  1  0  0  0  0
  2  3  1  0  0  0  0
  3  5  1  0  0  0  0
  3  4  2  0  0  0  0
  5 14  1  6  0  0  0
  6  7  2  0  0  0  0
  6  5  1  0  0  0  0
  8  6  1  0  0  0  0
  9  1  1  0  0  0  0
 10  9  1  0  0  0  0
 11 10  1  0  0  0  0
 12 11  1  0  0  0  0
 12 13  1  0  0  0  0
 13  9  1  0  0  0  0
 14 15  1  0  0  0  0
 15 16  2  0  0  0  0
 15 25  2  0  0  0  0
 16 17  2  0  0  0  0
 17 24  1  0  0  0  0
 17 18  2  0  0  0  0
 18 19  2  0  0  0  0
 19 21  1  0  0  0  0
 19 20  1  0  0  0  0
 22 23  1  0  0  0  0
 22 21  2  0  0  0  0
 24 22  1  0  0  0  0
 25 24  1  0  0  0  0
 27 26  1  0  0  0  0
 28 33  1  0  0  0  0
 29 30  2  0  0  0  0
 29 28  2  0  0  0  0
 30 31  1  0  0  0  0
 31 32  2  0  0  0  0
 32 27  1  0  0  0  0
 33 32  1  0  0  0  0
 35 28  1  0  0  0  0
 35 34  1  0  0  0  0
 36 30  1  0  0  0  0
 37 36  1  0  0  0  0
M  END
>  <minimizedAffinity>
-10.5000887

$$$$

 OpenBabel12271915073D

 37 41  0  0  1  0  0  0  0  0999 V2000
    8.3900   47.6230   45.5840 C   0  0  2  0  0  0  0  0  0  0  0  0
    9.4050   47.6660   46.6310 O   0  0  0  0  0  0  0  0  0  0  0  0
    9.1820   47.0610   47.8290 C   0  0  0  0  0  0  0  0  0  0  0  0
   10.1190   46.6460   48.4790 O   0  0  0  0  0  0  0  0  0  0  0  0
    7.7790   46.9420   48.2420 C   0  0  1  0  0  0  0  0  0  0  0  0
    6.7260   47.4020   47.5150 C   0  0  0  0  0  0  0  0  0  0  0  0
    5.5330   47.3030   47.7800 O   0  0  0  0  0  0  0  0  0  0  0  0
    7.0790   48.1080   46.1450 C   0  0  0  0  0  0  0  0  0  0  0  0
    8.3130   46.1700   45.1580 C   0  0  0  0  0  0  0  0  0  0  0  0
    9.6000   45.6890   44.4930 C   0  0  0  0  0  0  0  0  0  0  0  0
    9.1220   44.3690   43.9350 C   0  0  0  0  0  0  0  0  0  0  0  0
    7.8470   44.7840   43.2140 C   0  0  0  0  0  0  0  0  0  0  0  0
    7.1930   45.7260   44.2170 C   0  0  0  0  0  0  0  0  0  0  0  0
    7.4090   46.2560   49.5480 C   0  0  0  0  0  0  0  0  0  0  0  0
    7.5440   47.1720   50.7690 C   0  0  0  0  0  0  0  0  0  0  0  0
    6.8610   48.3420   50.9740 N   0  0  0  0  0  0  0  0  0  0  0  0
    7.2960   48.7720   52.1800 C   0  0  0  0  0  0  0  0  0  0  0  0
    6.9600   49.8990   52.9310 N   0  0  0  0  0  0  0  0  0  0  0  0
    7.5000   50.1050   54.0810 C   0  0  0  0  0  0  0  0  0  0  0  0
    7.1660   51.3230   54.9420 C   0  0  0  0  0  0  0  0  0  0  0  0
    8.4980   49.1720   54.6440 C   0  0  0  0  0  0  0  0  0  0  0  0
    8.8080   48.0970   53.9170 C   0  0  0  0  0  0  0  0  0  0  0  0
    9.8080   47.1100   54.4080 C   0  0  0  0  0  0  0  0  0  0  0  0
    8.1890   47.8970   52.6550 N   0  0  0  0  0  0  0  0  0  0  0  0
    8.3440   46.8770   51.7720 N   0  0  0  0  0  0  0  0  0  0  0  0
    8.9290   48.5850   44.5010 C   0  0  0  0  0  0  0  0  0  0  0  0
    8.3480   48.4890   43.0950 C   0  0  0  0  0  0  0  0  0  0  0  0
    7.3840   52.1130   43.2960 C   0  0  0  0  0  0  0  0  0  0  0  0
    6.7620   52.3230   42.1220 N   0  0  0  0  0  0  0  0  0  0  0  0
    6.6540   51.2720   41.2450 C   0  0  0  0  0  0  0  0  0  0  0  0
    7.1450   50.0480   41.5250 C   0  0  0  0  0  0  0  0  0  0  0  0
    7.7890   49.8200   42.7350 C   0  0  0  0  0  0  0  0  0  0  0  0
    7.8880   50.8960   43.6360 C   0  0  0  0  0  0  0  0  0  0  0  0
    7.3650   52.6630   45.6810 C   0  0  0  0  0  0  0  0  0  0  0  0
    7.4890   53.2530   44.2880 C   0  0  0  0  0  0  0  0  0  0  0  0
    5.9550   51.5280   39.9170 C   0  0  0  0  0  0  0  0  0  0  0  0
    6.3330   50.4530   38.9280 C   0  0  0  0  0  0  0  0  0  0  0  0
  1 26  1  6  0  0  0
  1  8  1  0  0  0  0
  1  2  1  0  0  0  0
  2  3  1  0  0  0  0
  3  5  1  0  0  0  0
  3  4  2  0  0  0  0
  5 14  1  6  0  0  0
  6  7  2  0  0  0  0
  6  5  1  0  0  0  0
  8  6  1  0  0  0  0
  9  1  1  0  0  0  0
 10  9  1  0  0  0  0
 11 10  1  0  0  0  0
 12 11  1  0  0  0  0
 12 13  1  0  0  0  0
 13  9  1  0  0  0  0
 14 15  1  0  0  0  0
 15 16  2  0  0  0  0
 15 25  2  0  0  0  0
 16 17  2  0  0  0  0
 17 24  1  0  0  0  0
 17 18  2  0  0  0  0
 18 19  2  0  0  0  0
 19 21  1  0  0  0  0
 19 20  1  0  0  0  0
 22 23  1  0  0  0  0
 22 21  2  0  0  0  0
 24 22  1  0  0  0  0
 25 24  1  0  0  0  0
 27 26  1  0  0  0  0
 28 33  1  0  0  0  0
 28 35  1  0  0  0  0
 29 28  2  0  0  0  0
 30 31  1  0  0  0  0
 30 29  2  0  0  0  0
 31 32  2  0  0  0  0
 32 27  1  0  0  0  0
 32 33  1  0  0  0  0
 35 34  1  0  0  0  0
 36 30  1  0  0  0  0
 37 36  1  0  0  0  0
M  END
>  <minimizedAffinity>
-10.4848528

$$$$

 OpenBabel12271915073D

 37 41  0  0  1  0  0  0  0  0999 V2000
    8.6730   47.5340   44.7690 C   0  0  2  0  0  0  0  0  0  0  0  0
    9.9610   47.8240   45.3890 O   0  0  0  0  0  0  0  0  0  0  0  0
   10.3280   47.1940   46.5370 C   0  0  0  0  0  0  0  0  0  0  0  0
   11.5030   47.0180   46.7780 O   0  0  0  0  0  0  0  0  0  0  0  0
    9.2350   46.7520   47.4090 C   0  0  1  0  0  0  0  0  0  0  0  0
    7.9150   46.9440   47.1400 C   0  0  0  0  0  0  0  0  0  0  0  0
    6.9540   46.5690   47.8020 O   0  0  0  0  0  0  0  0  0  0  0  0
    7.5810   47.7020   45.7940 C   0  0  0  0  0  0  0  0  0  0  0  0
    8.7720   46.1010   44.2860 C   0  0  0  0  0  0  0  0  0  0  0  0
    9.6100   45.9700   43.0170 C   0  0  0  0  0  0  0  0  0  0  0  0
    9.2800   44.5470   42.6370 C   0  0  0  0  0  0  0  0  0  0  0  0
    7.7590   44.5560   42.7030 C   0  0  0  0  0  0  0  0  0  0  0  0
    7.4910   45.3210   43.9940 C   0  0  0  0  0  0  0  0  0  0  0  0
    9.5250   46.0090   48.7050 C   0  0  0  0  0  0  0  0  0  0  0  0
    9.7740   44.5120   48.4980 C   0  0  0  0  0  0  0  0  0  0  0  0
   10.4210   43.6780   49.3720 N   0  0  0  0  0  0  0  0  0  0  0  0
   10.3750   42.4680   48.7700 C   0  0  0  0  0  0  0  0  0  0  0  0
   10.8540   41.2210   49.1730 N   0  0  0  0  0  0  0  0  0  0  0  0
   10.6840   40.1830   48.4320 C   0  0  0  0  0  0  0  0  0  0  0  0
   11.1890   38.7960   48.8280 C   0  0  0  0  0  0  0  0  0  0  0  0
    9.9910   40.2690   47.1290 C   0  0  0  0  0  0  0  0  0  0  0  0
    9.5350   41.4660   46.7580 C   0  0  0  0  0  0  0  0  0  0  0  0
    8.8310   41.6410   45.4590 C   0  0  0  0  0  0  0  0  0  0  0  0
    9.7350   42.5900   47.6020 N   0  0  0  0  0  0  0  0  0  0  0  0
    9.3430   43.8780   47.4280 N   0  0  0  0  0  0  0  0  0  0  0  0
    8.5540   48.5870   43.6430 C   0  0  0  0  0  0  0  0  0  0  0  0
    7.2080   48.7510   42.9460 C   0  0  0  0  0  0  0  0  0  0  0  0
    6.6840   51.5790   40.5310 C   0  0  0  0  0  0  0  0  0  0  0  0
    7.0190   52.6600   41.2580 N   0  0  0  0  0  0  0  0  0  0  0  0
    7.4190   52.4720   42.5580 C   0  0  0  0  0  0  0  0  0  0  0  0
    7.4900   51.2480   43.1190 C   0  0  0  0  0  0  0  0  0  0  0  0
    7.1470   50.1240   42.3770 C   0  0  0  0  0  0  0  0  0  0  0  0
    6.7490   50.3200   41.0420 C   0  0  0  0  0  0  0  0  0  0  0  0
    6.0540   50.3850   38.4890 C   0  0  0  0  0  0  0  0  0  0  0  0
    6.2670   51.7640   39.0870 C   0  0  0  0  0  0  0  0  0  0  0  0
    7.7860   53.7060   43.3710 C   0  0  0  0  0  0  0  0  0  0  0  0
    7.8920   53.3400   44.8310 C   0  0  0  0  0  0  0  0  0  0  0  0
  1 26  1  6  0  0  0
  1  2  1  0  0  0  0
  1  8  1  0  0  0  0
  2  3  1  0  0  0  0
  3  4  2  0  0  0  0
  3  5  1  0  0  0  0
  5 14  1  6  0  0  0
  6  5  1  0  0  0  0
  6  7  2  0  0  0  0
  8  6  1  0  0  0  0
  9  1  1  0  0  0  0
 10  9  1  0  0  0  0
 11 12  1  0  0  0  0
 11 10  1  0  0  0  0
 12 13  1  0  0  0  0
 13  9  1  0  0  0  0
 15 14  1  0  0  0  0
 15 16  2  0  0  0  0
 17 18  2  0  0  0  0
 17 16  2  0  0  0  0
 19 20  1  0  0  0  0
 19 18  2  0  0  0  0
 21 19  1  0  0  0  0
 22 21  2  0  0  0  0
 22 24  1  0  0  0  0
 23 22  1  0  0  0  0
 24 17  1  0  0  0  0
 25 24  1  0  0  0  0
 25 15  2  0  0  0  0
 27 26  1  0  0  0  0
 28 33  1  0  0  0  0
 28 29  2  0  0  0  0
 29 30  2  0  0  0  0
 30 31  1  0  0  0  0
 30 36  1  0  0  0  0
 32 27  1  0  0  0  0
 32 31  2  0  0  0  0
 33 32  1  0  0  0  0
 34 35  1  0  0  0  0
 35 28  1  0  0  0  0
 36 37  1  0  0  0  0
M  END
>  <minimizedAffinity>
-10.0136795

$$$$

 OpenBabel12271915073D

 37 41  0  0  1  0  0  0  0  0999 V2000
    8.9830   47.8040   45.2690 C   0  0  2  0  0  0  0  0  0  0  0  0
   10.2600   47.8630   45.9710 O   0  0  0  0  0  0  0  0  0  0  0  0
   10.5140   47.0190   47.0080 C   0  0  0  0  0  0  0  0  0  0  0  0
   11.6560   46.6930   47.2550 O   0  0  0  0  0  0  0  0  0  0  0  0
    9.3440   46.5450   47.7560 C   0  0  1  0  0  0  0  0  0  0  0  0
    8.0620   46.9050   47.4800 C   0  0  0  0  0  0  0  0  0  0  0  0
    7.0400   46.5190   48.0370 O   0  0  0  0  0  0  0  0  0  0  0  0
    7.8620   47.9030   46.2710 C   0  0  0  0  0  0  0  0  0  0  0  0
    8.9780   46.4680   44.5540 C   0  0  0  0  0  0  0  0  0  0  0  0
    9.5130   46.5670   43.1280 C   0  0  0  0  0  0  0  0  0  0  0  0
    9.1120   45.2080   42.6080 C   0  0  0  0  0  0  0  0  0  0  0  0
    7.6440   45.1470   43.0060 C   0  0  0  0  0  0  0  0  0  0  0  0
    7.6670   45.6920   44.4290 C   0  0  0  0  0  0  0  0  0  0  0  0
    9.5050   45.5740   48.9160 C   0  0  0  0  0  0  0  0  0  0  0  0
    9.8210   44.1440   48.4660 C   0  0  0  0  0  0  0  0  0  0  0  0
   10.6840   43.2800   49.0860 N   0  0  0  0  0  0  0  0  0  0  0  0
   10.6130   42.1520   48.3420 C   0  0  0  0  0  0  0  0  0  0  0  0
   11.2530   40.9190   48.4780 N   0  0  0  0  0  0  0  0  0  0  0  0
   11.0220   39.9660   47.6460 C   0  0  0  0  0  0  0  0  0  0  0  0
   11.6960   38.5980   47.7510 C   0  0  0  0  0  0  0  0  0  0  0  0
   10.0860   40.1380   46.5150 C   0  0  0  0  0  0  0  0  0  0  0  0
    9.4790   41.3200   46.3990 C   0  0  0  0  0  0  0  0  0  0  0  0
    8.5280   41.5800   45.2850 C   0  0  0  0  0  0  0  0  0  0  0  0
    9.7530   42.3490   47.3380 N   0  0  0  0  0  0  0  0  0  0  0  0
    9.2400   43.6040   47.4150 N   0  0  0  0  0  0  0  0  0  0  0  0
    9.0120   49.0350   44.3350 C   0  0  0  0  0  0  0  0  0  0  0  0
    7.8040   49.9650   44.3260 C   0  0  0  0  0  0  0  0  0  0  0  0
    7.1270   51.7910   41.1150 C   0  0  0  0  0  0  0  0  0  0  0  0
    6.7660   50.8020   40.2780 N   0  0  0  0  0  0  0  0  0  0  0  0
    6.7450   49.5160   40.7600 C   0  0  0  0  0  0  0  0  0  0  0  0
    7.0670   49.2210   42.0350 C   0  0  0  0  0  0  0  0  0  0  0  0
    7.4410   50.2350   42.9090 C   0  0  0  0  0  0  0  0  0  0  0  0
    7.4500   51.5520   42.4150 C   0  0  0  0  0  0  0  0  0  0  0  0
    7.8400   54.0720   41.6440 C   0  0  0  0  0  0  0  0  0  0  0  0
    7.1300   53.2190   40.6090 C   0  0  0  0  0  0  0  0  0  0  0  0
    6.3430   48.4070   39.7980 C   0  0  0  0  0  0  0  0  0  0  0  0
    7.3160   47.2590   39.9110 C   0  0  0  0  0  0  0  0  0  0  0  0
  1 26  1  6  0  0  0
  1  2  1  0  0  0  0
  1  8  1  0  0  0  0
  2  3  1  0  0  0  0
  3  4  2  0  0  0  0
  3  5  1  0  0  0  0
  5 14  1  6  0  0  0
  6  5  1  0  0  0  0
  6  7  2  0  0  0  0
  8  6  1  0  0  0  0
  9  1  1  0  0  0  0
 10  9  1  0  0  0  0
 11 12  1  0  0  0  0
 11 10  1  0  0  0  0
 12 13  1  0  0  0  0
 13  9  1  0  0  0  0
 15 14  1  0  0  0  0
 15 16  2  0  0  0  0
 17 18  2  0  0  0  0
 17 16  2  0  0  0  0
 19 20  1  0  0  0  0
 19 18  2  0  0  0  0
 21 19  1  0  0  0  0
 22 21  2  0  0  0  0
 22 24  1  0  0  0  0
 23 22  1  0  0  0  0
 24 25  1  0  0  0  0
 24 17  1  0  0  0  0
 25 15  2  0  0  0  0
 27 26  1  0  0  0  0
 28 33  1  0  0  0  0
 29 30  2  0  0  0  0
 29 28  2  0  0  0  0
 30 31  1  0  0  0  0
 31 32  2  0  0  0  0
 32 27  1  0  0  0  0
 33 32  1  0  0  0  0
 35 28  1  0  0  0  0
 35 34  1  0  0  0  0
 36 37  1  0  0  0  0
 36 30  1  0  0  0  0
M  END
>  <minimizedAffinity>
-9.88991547

$$$$

 OpenBabel12271915073D

 37 41  0  0  1  0  0  0  0  0999 V2000
    8.0400   47.1320   44.3360 C   0  0  2  0  0  0  0  0  0  0  0  0
    9.0420   48.1160   44.7300 O   0  0  0  0  0  0  0  0  0  0  0  0
   10.0470   47.7720   45.5790 C   0  0  0  0  0  0  0  0  0  0  0  0
   11.1120   48.3500   45.5200 O   0  0  0  0  0  0  0  0  0  0  0  0
    9.7540   46.6820   46.5170 C   0  0  1  0  0  0  0  0  0  0  0  0
    8.5630   46.0290   46.5840 C   0  0  0  0  0  0  0  0  0  0  0  0
    8.2650   45.0890   47.3130 O   0  0  0  0  0  0  0  0  0  0  0  0
    7.4480   46.5070   45.5720 C   0  0  0  0  0  0  0  0  0  0  0  0
    8.7840   46.1130   43.4960 C   0  0  0  0  0  0  0  0  0  0  0  0
    9.1300   46.6430   42.1070 C   0  0  0  0  0  0  0  0  0  0  0  0
    9.5680   45.3590   41.4450 C   0  0  0  0  0  0  0  0  0  0  0  0
    8.4110   44.4280   41.7820 C   0  0  0  0  0  0  0  0  0  0  0  0
    8.1530   44.7430   43.2500 C   0  0  0  0  0  0  0  0  0  0  0  0
   10.8130   46.1920   47.4940 C   0  0  0  0  0  0  0  0  0  0  0  0
   10.6640   46.7920   48.8950 C   0  0  0  0  0  0  0  0  0  0  0  0
    9.7180   46.4430   49.8220 N   0  0  0  0  0  0  0  0  0  0  0  0
   10.0000   47.2200   50.8920 C   0  0  0  0  0  0  0  0  0  0  0  0
    9.3950   47.3140   52.1470 N   0  0  0  0  0  0  0  0  0  0  0  0
    9.8470   48.1290   53.0330 C   0  0  0  0  0  0  0  0  0  0  0  0
    9.2210   48.2680   54.4200 C   0  0  0  0  0  0  0  0  0  0  0  0
   11.0080   49.0020   52.7590 C   0  0  0  0  0  0  0  0  0  0  0  0
   11.5780   48.9010   51.5570 C   0  0  0  0  0  0  0  0  0  0  0  0
   12.7470   49.7480   51.1970 C   0  0  0  0  0  0  0  0  0  0  0  0
   11.0570   47.9860   50.6040 N   0  0  0  0  0  0  0  0  0  0  0  0
   11.4900   47.7140   49.3460 N   0  0  0  0  0  0  0  0  0  0  0  0
    6.9870   47.9580   43.5640 C   0  0  0  0  0  0  0  0  0  0  0  0
    7.1460   49.4740   43.5220 C   0  0  0  0  0  0  0  0  0  0  0  0
    6.9490   51.6770   40.4870 C   0  0  0  0  0  0  0  0  0  0  0  0
    6.7530   50.7950   39.4890 N   0  0  0  0  0  0  0  0  0  0  0  0
    6.6880   49.4600   39.8030 C   0  0  0  0  0  0  0  0  0  0  0  0
    6.8070   49.0120   41.0690 C   0  0  0  0  0  0  0  0  0  0  0  0
    7.0090   49.9140   42.1080 C   0  0  0  0  0  0  0  0  0  0  0  0
    7.0640   51.2820   41.7840 C   0  0  0  0  0  0  0  0  0  0  0  0
    8.0970   53.7750   41.0050 C   0  0  0  0  0  0  0  0  0  0  0  0
    6.9970   53.1560   40.1630 C   0  0  0  0  0  0  0  0  0  0  0  0
    6.4760   48.4750   38.6620 C   0  0  0  0  0  0  0  0  0  0  0  0
    6.0320   49.2180   37.4250 C   0  0  0  0  0  0  0  0  0  0  0  0
  1 26  1  6  0  0  0
  1  2  1  0  0  0  0
  1  8  1  0  0  0  0
  2  3  1  0  0  0  0
  3  5  1  0  0  0  0
  4  3  2  0  0  0  0
  5  6  1  0  0  0  0
  5 14  1  6  0  0  0
  6  7  2  0  0  0  0
  8  6  1  0  0  0  0
  9  1  1  0  0  0  0
 10  9  1  0  0  0  0
 11 12  1  0  0  0  0
 11 10  1  0  0  0  0
 12 13  1  0  0  0  0
 13  9  1  0  0  0  0
 14 15  1  0  0  0  0
 15 25  2  0  0  0  0
 15 16  2  0  0  0  0
 16 17  2  0  0  0  0
 17 18  2  0  0  0  0
 18 19  2  0  0  0  0
 19 20  1  0  0  0  0
 21 19  1  0  0  0  0
 22 21  2  0  0  0  0
 23 22  1  0  0  0  0
 24 17  1  0  0  0  0
 24 22  1  0  0  0  0
 25 24  1  0  0  0  0
 27 26  1  0  0  0  0
 28 33  1  0  0  0  0
 29 30  2  0  0  0  0
 29 28  2  0  0  0  0
 30 31  1  0  0  0  0
 31 32  2  0  0  0  0
 32 27  1  0  0  0  0
 33 32  1  0  0  0  0
 35 28  1  0  0  0  0
 35 34  1  0  0  0  0
 36 30  1  0  0  0  0
 37 36  1  0  0  0  0
M  END
>  <minimizedAffinity>
-9.84989738

$$$$

 OpenBabel12271915073D

 37 41  0  0  1  0  0  0  0  0999 V2000
    8.5590   47.6120   45.0120 C   0  0  2  0  0  0  0  0  0  0  0  0
    9.8250   47.9510   45.6520 O   0  0  0  0  0  0  0  0  0  0  0  0
   10.1770   47.3690   46.8300 C   0  0  0  0  0  0  0  0  0  0  0  0
   11.3500   47.2270   47.1060 O   0  0  0  0  0  0  0  0  0  0  0  0
    9.0720   46.9310   47.6900 C   0  0  1  0  0  0  0  0  0  0  0  0
    7.7560   47.0850   47.3830 C   0  0  0  0  0  0  0  0  0  0  0  0
    6.7870   46.7100   48.0340 O   0  0  0  0  0  0  0  0  0  0  0  0
    7.4390   47.7890   46.0040 C   0  0  0  0  0  0  0  0  0  0  0  0
    8.7010   46.1660   44.5810 C   0  0  0  0  0  0  0  0  0  0  0  0
    9.6240   46.0040   43.3760 C   0  0  0  0  0  0  0  0  0  0  0  0
    9.3310   44.5670   43.0180 C   0  0  0  0  0  0  0  0  0  0  0  0
    7.8090   44.5640   42.9820 C   0  0  0  0  0  0  0  0  0  0  0  0
    7.4490   45.3650   44.2280 C   0  0  0  0  0  0  0  0  0  0  0  0
    9.3470   46.2400   49.0170 C   0  0  0  0  0  0  0  0  0  0  0  0
    9.7490   44.7700   48.8590 C   0  0  0  0  0  0  0  0  0  0  0  0
    9.4410   43.9640   47.7950 N   0  0  0  0  0  0  0  0  0  0  0  0
   10.0230   42.7800   48.0980 C   0  0  0  0  0  0  0  0  0  0  0  0
   10.0700   41.5730   47.3990 N   0  0  0  0  0  0  0  0  0  0  0  0
   10.7030   40.5620   47.8800 C   0  0  0  0  0  0  0  0  0  0  0  0
   10.7840   39.2190   47.1550 C   0  0  0  0  0  0  0  0  0  0  0  0
   11.3920   40.6320   49.1860 C   0  0  0  0  0  0  0  0  0  0  0  0
   11.3420   41.7930   49.8410 C   0  0  0  0  0  0  0  0  0  0  0  0
   12.0030   41.9470   51.1660 C   0  0  0  0  0  0  0  0  0  0  0  0
   10.6380   42.8900   49.2790 N   0  0  0  0  0  0  0  0  0  0  0  0
   10.4780   44.1490   49.7630 N   0  0  0  0  0  0  0  0  0  0  0  0
    8.4450   48.6230   43.8490 C   0  0  0  0  0  0  0  0  0  0  0  0
    7.1170   48.7260   43.1080 C   0  0  0  0  0  0  0  0  0  0  0  0
    7.4100   52.4130   42.4530 C   0  0  0  0  0  0  0  0  0  0  0  0
    7.0170   52.5220   41.1710 N   0  0  0  0  0  0  0  0  0  0  0  0
    6.6530   51.3790   40.5020 C   0  0  0  0  0  0  0  0  0  0  0  0
    6.6730   50.1650   41.0880 C   0  0  0  0  0  0  0  0  0  0  0  0
    7.0770   50.0410   42.4130 C   0  0  0  0  0  0  0  0  0  0  0  0
    7.4380   51.2150   43.0980 C   0  0  0  0  0  0  0  0  0  0  0  0
    7.8840   53.2980   44.6850 C   0  0  0  0  0  0  0  0  0  0  0  0
    7.7890   53.6660   43.2160 C   0  0  0  0  0  0  0  0  0  0  0  0
    6.2200   51.5180   39.0500 C   0  0  0  0  0  0  0  0  0  0  0  0
    6.1960   50.1590   38.3940 C   0  0  0  0  0  0  0  0  0  0  0  0
  1 26  1  6  0  0  0
  1  2  1  0  0  0  0
  1  8  1  0  0  0  0
  2  3  1  0  0  0  0
  3  4  2  0  0  0  0
  3  5  1  0  0  0  0
  5 14  1  6  0  0  0
  6  5  1  0  0  0  0
  6  7  2  0  0  0  0
  8  6  1  0  0  0  0
  9  1  1  0  0  0  0
 10  9  1  0  0  0  0
 11 10  1  0  0  0  0
 12 11  1  0  0  0  0
 12 13  1  0  0  0  0
 13  9  1  0  0  0  0
 15 14  1  0  0  0  0
 15 25  2  0  0  0  0
 16 17  2  0  0  0  0
 16 15  2  0  0  0  0
 17 24  1  0  0  0  0
 18 19  2  0  0  0  0
 18 17  2  0  0  0  0
 19 21  1  0  0  0  0
 20 19  1  0  0  0  0
 21 22  2  0  0  0  0
 22 23  1  0  0  0  0
 24 25  1  0  0  0  0
 24 22  1  0  0  0  0
 27 26  1  0  0  0  0
 28 33  1  0  0  0  0
 28 35  1  0  0  0  0
 29 28  2  0  0  0  0
 30 31  1  0  0  0  0
 30 29  2  0  0  0  0
 31 32  2  0  0  0  0
 32 33  1  0  0  0  0
 32 27  1  0  0  0  0
 35 34  1  0  0  0  0
 36 30  1  0  0  0  0
 37 36  1  0  0  0  0
M  END
>  <minimizedAffinity>
-9.7736454

$$$$

 OpenBabel12271915073D

 37 41  0  0  1  0  0  0  0  0999 V2000
    8.9800   47.9030   45.3280 C   0  0  2  0  0  0  0  0  0  0  0  0
   10.2810   47.8980   45.9870 O   0  0  0  0  0  0  0  0  0  0  0  0
   10.5580   46.9820   46.9540 C   0  0  0  0  0  0  0  0  0  0  0  0
   11.7020   46.6260   47.1390 O   0  0  0  0  0  0  0  0  0  0  0  0
    9.4070   46.4730   47.7090 C   0  0  1  0  0  0  0  0  0  0  0  0
    8.1210   46.8660   47.5030 C   0  0  0  0  0  0  0  0  0  0  0  0
    7.1140   46.4560   48.0680 O   0  0  0  0  0  0  0  0  0  0  0  0
    7.8950   47.9470   46.3720 C   0  0  0  0  0  0  0  0  0  0  0  0
    8.9310   46.6190   44.5240 C   0  0  0  0  0  0  0  0  0  0  0  0
    9.4670   46.7970   43.1060 C   0  0  0  0  0  0  0  0  0  0  0  0
    9.0220   45.4900   42.4970 C   0  0  0  0  0  0  0  0  0  0  0  0
    7.5530   45.4490   42.8960 C   0  0  0  0  0  0  0  0  0  0  0  0
    7.5960   45.8960   44.3530 C   0  0  0  0  0  0  0  0  0  0  0  0
    9.5920   45.4230   48.7940 C   0  0  0  0  0  0  0  0  0  0  0  0
    9.2480   44.0060   48.3270 C   0  0  0  0  0  0  0  0  0  0  0  0
    9.5320   43.4750   47.0960 N   0  0  0  0  0  0  0  0  0  0  0  0
    9.0570   42.2100   47.1640 C   0  0  0  0  0  0  0  0  0  0  0  0
    9.0610   41.1750   46.2280 N   0  0  0  0  0  0  0  0  0  0  0  0
    8.5560   40.0280   46.5170 C   0  0  0  0  0  0  0  0  0  0  0  0
    8.5350   38.8620   45.5280 C   0  0  0  0  0  0  0  0  0  0  0  0
    7.9460   39.7640   47.8380 C   0  0  0  0  0  0  0  0  0  0  0  0
    7.9520   40.7600   48.7230 C   0  0  0  0  0  0  0  0  0  0  0  0
    7.3520   40.5810   50.0730 C   0  0  0  0  0  0  0  0  0  0  0  0
    8.5220   42.0120   48.3730 N   0  0  0  0  0  0  0  0  0  0  0  0
    8.6480   43.1410   49.1180 N   0  0  0  0  0  0  0  0  0  0  0  0
    8.9960   49.1940   44.4790 C   0  0  0  0  0  0  0  0  0  0  0  0
    7.7430   50.0620   44.4580 C   0  0  0  0  0  0  0  0  0  0  0  0
    6.6630   49.5420   40.8990 C   0  0  0  0  0  0  0  0  0  0  0  0
    6.7350   50.7820   40.3800 N   0  0  0  0  0  0  0  0  0  0  0  0
    7.1380   51.8080   41.1990 C   0  0  0  0  0  0  0  0  0  0  0  0
    7.4630   51.6110   42.4920 C   0  0  0  0  0  0  0  0  0  0  0  0
    7.3930   50.3350   43.0380 C   0  0  0  0  0  0  0  0  0  0  0  0
    6.9920   49.2840   42.1940 C   0  0  0  0  0  0  0  0  0  0  0  0
    7.4730   47.5280   39.7690 C   0  0  0  0  0  0  0  0  0  0  0  0
    6.2480   48.3930   40.0040 C   0  0  0  0  0  0  0  0  0  0  0  0
    7.2050   53.2050   40.5990 C   0  0  0  0  0  0  0  0  0  0  0  0
    7.7680   54.1680   41.6150 C   0  0  0  0  0  0  0  0  0  0  0  0
  1 26  1  6  0  0  0
  1  2  1  0  0  0  0
  1  8  1  0  0  0  0
  2  3  1  0  0  0  0
  3  4  2  0  0  0  0
  3  5  1  0  0  0  0
  5 14  1  6  0  0  0
  6  5  1  0  0  0  0
  6  7  2  0  0  0  0
  8  6  1  0  0  0  0
  9  1  1  0  0  0  0
 10  9  1  0  0  0  0
 11 12  1  0  0  0  0
 11 10  1  0  0  0  0
 12 13  1  0  0  0  0
 13  9  1  0  0  0  0
 15 14  1  0  0  0  0
 15 25  2  0  0  0  0
 16 17  2  0  0  0  0
 16 15  2  0  0  0  0
 17 24  1  0  0  0  0
 18 19  2  0  0  0  0
 18 17  2  0  0  0  0
 19 21  1  0  0  0  0
 20 19  1  0  0  0  0
 21 22  2  0  0  0  0
 22 23  1  0  0  0  0
 24 22  1  0  0  0  0
 24 25  1  0  0  0  0
 27 26  1  0  0  0  0
 28 33  1  0  0  0  0
 29 28  2  0  0  0  0
 29 30  2  0  0  0  0
 30 31  1  0  0  0  0
 31 32  2  0  0  0  0
 32 27  1  0  0  0  0
 33 32  1  0  0  0  0
 34 35  1  0  0  0  0
 35 28  1  0  0  0  0
 36 30  1  0  0  0  0
 36 37  1  0  0  0  0
M  END
>  <minimizedAffinity>
-9.56390572

$$$$
