
 OpenBabel12271915013D

 42 46  0  0  1  0  0  0  0  0999 V2000
    8.0420   46.9930   45.8290 C   0  0  1  0  0  0  0  0  0  0  0  0
    7.4590   47.2870   44.3530 C   0  0  1  0  0  0  0  0  0  0  0  0
    7.4290   48.7480   43.8260 C   0  0  0  0  0  0  0  0  0  0  0  0
    7.9920   49.8250   44.5810 C   0  0  0  0  0  0  0  0  0  0  0  0
    7.9690   51.1050   44.0650 C   0  0  0  0  0  0  0  0  0  0  0  0
    8.4350   52.1910   44.7080 O   0  0  0  0  0  0  0  0  0  0  0  0
    7.8960   53.2370   43.8170 C   0  0  0  0  0  0  0  0  0  0  0  0
    7.5450   52.6640   42.5010 O   0  0  0  0  0  0  0  0  0  0  0  0
    7.4780   51.3480   42.8470 C   0  0  0  0  0  0  0  0  0  0  0  0
    6.9810   50.3690   42.0660 C   0  0  0  0  0  0  0  0  0  0  0  0
    6.9350   49.0220   42.5380 C   0  0  0  0  0  0  0  0  0  0  0  0
    6.3800   48.0040   41.6080 C   0  0  0  0  0  0  0  0  0  0  0  0
    7.1430   46.7480   41.4690 C   0  0  0  0  0  0  0  0  0  0  0  0
    8.5300   46.8330   42.1230 N   0  0  2  0  0  0  0  0  0  0  0  0
    8.8940   47.8130   42.0070 H   0  0  0  0  0  0  0  0  0  0  0  0
    9.4090   45.7930   41.5830 C   0  0  0  0  0  0  0  0  0  0  0  0
    9.0180   44.5550   42.3920 C   0  0  0  0  0  0  0  0  0  0  0  0
    8.2660   45.0120   43.6120 C   0  0  0  0  0  0  0  0  0  0  0  0
    8.4980   46.5330   43.5920 C   0  0  2  0  0  0  0  0  0  0  0  0
    9.8090   46.8380   44.3240 C   0  0  0  0  0  0  0  0  0  0  0  0
    9.5200   47.1010   45.5470 C   0  0  1  0  0  0  0  0  0  0  0  0
   10.3920   47.4920   46.5020 O   0  0  0  0  0  0  0  0  0  0  0  0
   11.3290   46.4620   46.8730 C   0  0  0  0  0  0  0  0  0  0  0  0
    7.4760   47.8960   46.8860 O   0  0  0  0  0  0  0  0  0  0  0  0
    6.9430   47.2390   47.8920 C   0  0  0  0  0  0  0  0  0  0  0  0
    5.6690   46.9490   48.0500 O   0  0  0  0  0  0  0  0  0  0  0  0
    7.9070   46.9290   49.0300 C   0  0  2  0  0  0  0  0  0  0  0  0
    9.0000   47.8970   49.0800 O   0  0  0  0  0  0  0  0  0  0  0  0
    8.6620   48.6050   49.6060 H   0  0  0  0  0  0  0  0  0  0  0  0
    8.3930   45.4400   48.7400 C   0  0  0  0  0  0  0  0  0  0  0  0
    9.2070   44.7510   49.8960 C   0  0  0  0  0  0  0  0  0  0  0  0
    8.7840   43.7470   50.5170 O   0  0  0  0  0  0  0  0  0  0  0  0
   10.3120   45.4340   50.1220 O   0  0  0  0  0  0  0  0  0  0  0  0
   10.5320   45.8300   51.5420 C   0  0  0  0  0  0  0  0  0  0  0  0
    7.0190   47.0140   50.2390 C   0  0  0  0  0  0  0  0  0  0  0  0
    7.3420   48.1420   51.3300 C   0  0  0  0  0  0  0  0  0  0  0  0
    6.6570   47.8140   52.6180 C   0  0  0  0  0  0  0  0  0  0  0  0
    6.1510   49.0380   53.4510 C   0  0  0  0  0  0  0  0  0  0  0  0
    4.6570   49.3480   53.2680 C   0  0  0  0  0  0  0  0  0  0  0  0
    6.4160   48.6690   54.8590 C   0  0  0  0  0  0  0  0  0  0  0  0
    6.9000   50.2110   53.1270 O   0  0  0  0  0  0  0  0  0  0  0  0
    7.6890   50.1860   53.6630 H   0  0  0  0  0  0  0  0  0  0  0  0
  1 24  1  1  0  0  0
  2 19  1  6  0  0  0
  2  1  1  0  0  0  0
  3  2  1  0  0  0  0
  3  4  2  0  0  0  0
  5  4  1  0  0  0  0
  5  6  1  0  0  0  0
  7  6  1  0  0  0  0
  8  9  1  0  0  0  0
  8  7  1  0  0  0  0
  9  5  2  0  0  0  0
 10 11  2  0  0  0  0
 10  9  1  0  0  0  0
 11  3  1  0  0  0  0
 12 11  1  0  0  0  0
 13 12  1  0  0  0  0
 13 14  1  0  0  0  0
 14 19  1  1  0  0  0
 15 14  1  0  0  0  0
 16 14  1  0  0  0  0
 16 17  1  0  0  0  0
 17 18  1  0  0  0  0
 19 18  1  1  0  0  0
 19 20  1  0  0  0  0
 20 21  1  0  0  0  0
 21  1  1  0  0  0  0
 21 22  1  6  0  0  0
 22 23  1  0  0  0  0
 24 25  1  0  0  0  0
 25 26  2  0  0  0  0
 25 27  1  0  0  0  0
 27 30  1  6  0  0  0
 27 28  1  0  0  0  0
 27 35  1  0  0  0  0
 28 29  1  0  0  0  0
 30 31  1  0  0  0  0
 31 33  1  0  0  0  0
 31 32  2  0  0  0  0
 33 34  1  0  0  0  0
 35 36  1  0  0  0  0
 36 37  1  0  0  0  0
 37 38  1  0  0  0  0
 38 40  1  0  0  0  0
 39 38  1  0  0  0  0
 41 38  1  0  0  0  0
 41 42  1  0  0  0  0
M  END
>  <minimizedAffinity>
-9.01348495

$$$$

 OpenBabel12271915013D

 42 46  0  0  1  0  0  0  0  0999 V2000
    8.7690   47.0250   44.7020 C   0  0  1  0  0  0  0  0  0  0  0  0
    8.7980   46.5980   43.1460 C   0  0  1  0  0  0  0  0  0  0  0  0
    8.6230   45.1010   42.7670 C   0  0  0  0  0  0  0  0  0  0  0  0
    8.3440   44.1080   43.7580 C   0  0  0  0  0  0  0  0  0  0  0  0
    8.1690   42.7930   43.3770 C   0  0  0  0  0  0  0  0  0  0  0  0
    7.9420   41.7790   44.2310 O   0  0  0  0  0  0  0  0  0  0  0  0
    8.1220   40.6480   43.3010 C   0  0  0  0  0  0  0  0  0  0  0  0
    8.0010   41.1050   41.9010 O   0  0  0  0  0  0  0  0  0  0  0  0
    8.2020   42.4390   42.0900 C   0  0  0  0  0  0  0  0  0  0  0  0
    8.4090   43.3360   41.1050 C   0  0  0  0  0  0  0  0  0  0  0  0
    8.6340   44.7110   41.4160 C   0  0  0  0  0  0  0  0  0  0  0  0
    8.8450   45.6320   40.2690 C   0  0  0  0  0  0  0  0  0  0  0  0
    8.0970   46.9050   40.2960 C   0  0  0  0  0  0  0  0  0  0  0  0
    7.0230   46.9280   41.3940 N   0  0  2  0  0  0  0  0  0  0  0  0
    6.6290   45.9580   41.4950 H   0  0  0  0  0  0  0  0  0  0  0  0
    6.0250   47.9600   41.1050 C   0  0  0  0  0  0  0  0  0  0  0  0
    6.6900   49.2380   41.6210 C   0  0  0  0  0  0  0  0  0  0  0  0
    7.8140   48.8420   42.5390 C   0  0  0  0  0  0  0  0  0  0  0  0
    7.5690   47.3350   42.7300 C   0  0  2  0  0  0  0  0  0  0  0  0
    6.5910   47.1410   43.8930 C   0  0  0  0  0  0  0  0  0  0  0  0
    7.2840   46.9590   44.9580 C   0  0  1  0  0  0  0  0  0  0  0  0
    6.7940   46.6770   46.1860 O   0  0  0  0  0  0  0  0  0  0  0  0
    6.1040   47.7880   46.7910 C   0  0  0  0  0  0  0  0  0  0  0  0
    9.6550   46.1810   45.5710 O   0  0  0  0  0  0  0  0  0  0  0  0
   10.3060   46.8790   46.4740 C   0  0  0  0  0  0  0  0  0  0  0  0
   11.2120   47.8060   46.2440 O   0  0  0  0  0  0  0  0  0  0  0  0
   10.0610   46.4410   47.9120 C   0  0  2  0  0  0  0  0  0  0  0  0
    8.6320   46.3790   48.2130 O   0  0  0  0  0  0  0  0  0  0  0  0
    8.3730   45.5120   47.9410 H   0  0  0  0  0  0  0  0  0  0  0  0
   10.8470   47.5120   48.7910 C   0  0  0  0  0  0  0  0  0  0  0  0
   10.6290   47.4100   50.3460 C   0  0  0  0  0  0  0  0  0  0  0  0
    9.6150   46.8780   50.8550 O   0  0  0  0  0  0  0  0  0  0  0  0
   11.6200   48.0200   50.9670 O   0  0  0  0  0  0  0  0  0  0  0  0
   11.2300   48.7680   52.1960 C   0  0  0  0  0  0  0  0  0  0  0  0
   10.7070   45.0850   47.9510 C   0  0  0  0  0  0  0  0  0  0  0  0
    9.8100   43.8380   48.4070 C   0  0  0  0  0  0  0  0  0  0  0  0
    9.4400   43.0160   47.2140 C   0  0  0  0  0  0  0  0  0  0  0  0
    9.0570   41.5270   47.5060 C   0  0  0  0  0  0  0  0  0  0  0  0
    9.9900   40.4980   46.8490 C   0  0  0  0  0  0  0  0  0  0  0  0
    9.1330   41.4020   48.9790 C   0  0  0  0  0  0  0  0  0  0  0  0
    7.7190   41.2600   47.0850 O   0  0  0  0  0  0  0  0  0  0  0  0
    7.1480   41.5360   47.7980 H   0  0  0  0  0  0  0  0  0  0  0  0
  1 21  1  0  0  0  0
  1 24  1  1  0  0  0
  2 19  1  6  0  0  0
  2  1  1  0  0  0  0
  3  2  1  0  0  0  0
  3  4  2  0  0  0  0
  5  4  1  0  0  0  0
  5  6  1  0  0  0  0
  7  6  1  0  0  0  0
  8  9  1  0  0  0  0
  8  7  1  0  0  0  0
  9  5  2  0  0  0  0
 10 11  2  0  0  0  0
 10  9  1  0  0  0  0
 11  3  1  0  0  0  0
 12 13  1  0  0  0  0
 12 11  1  0  0  0  0
 13 14  1  0  0  0  0
 14 15  1  0  0  0  0
 14 19  1  1  0  0  0
 16 14  1  0  0  0  0
 16 17  1  0  0  0  0
 17 18  1  0  0  0  0
 19 18  1  6  0  0  0
 19 20  1  0  0  0  0
 20 21  1  0  0  0  0
 21 22  1  6  0  0  0
 22 23  1  0  0  0  0
 24 25  1  0  0  0  0
 25 27  1  0  0  0  0
 26 25  2  0  0  0  0
 27 35  1  1  0  0  0
 27 28  1  0  0  0  0
 27 30  1  0  0  0  0
 29 28  1  0  0  0  0
 30 31  1  0  0  0  0
 31 32  2  0  0  0  0
 31 33  1  0  0  0  0
 33 34  1  0  0  0  0
 35 36  1  0  0  0  0
 37 38  1  0  0  0  0
 37 36  1  0  0  0  0
 38 40  1  0  0  0  0
 39 38  1  0  0  0  0
 41 38  1  0  0  0  0
 41 42  1  0  0  0  0
M  END
>  <minimizedAffinity>
-8.53971672

$$$$

 OpenBabel12271915013D

 42 46  0  0  1  0  0  0  0  0999 V2000
    8.3520   46.9480   49.0180 C   0  0  1  0  0  0  0  0  0  0  0  0
    8.3980   46.0470   50.3560 C   0  0  1  0  0  0  0  0  0  0  0  0
    8.9300   44.5900   50.2720 C   0  0  0  0  0  0  0  0  0  0  0  0
    9.4660   44.0600   49.0560 C   0  0  0  0  0  0  0  0  0  0  0  0
    9.9540   42.7690   49.0290 C   0  0  0  0  0  0  0  0  0  0  0  0
   10.4420   42.1640   47.9310 O   0  0  0  0  0  0  0  0  0  0  0  0
   10.5280   40.7840   48.4460 C   0  0  0  0  0  0  0  0  0  0  0  0
   10.5040   40.7800   49.9240 O   0  0  0  0  0  0  0  0  0  0  0  0
    9.9830   42.0210   50.1360 C   0  0  0  0  0  0  0  0  0  0  0  0
    9.5410   42.4800   51.3230 C   0  0  0  0  0  0  0  0  0  0  0  0
    8.9890   43.7930   51.4300 C   0  0  0  0  0  0  0  0  0  0  0  0
    8.5340   44.2220   52.7780 C   0  0  0  0  0  0  0  0  0  0  0  0
    8.9440   45.5700   53.2170 C   0  0  0  0  0  0  0  0  0  0  0  0
   10.0000   46.1900   52.2900 N   0  0  2  0  0  0  0  0  0  0  0  0
   10.6250   45.4210   51.9350 H   0  0  0  0  0  0  0  0  0  0  0  0
   10.7060   47.2730   52.9790 C   0  0  0  0  0  0  0  0  0  0  0  0
    9.7570   48.4620   52.8190 C   0  0  0  0  0  0  0  0  0  0  0  0
    8.7840   48.1380   51.7180 C   0  0  0  0  0  0  0  0  0  0  0  0
    9.3980   46.8710   51.0970 C   0  0  2  0  0  0  0  0  0  0  0  0
   10.4160   47.2900   50.0330 C   0  0  0  0  0  0  0  0  0  0  0  0
    9.8120   47.3070   48.9010 C   0  0  1  0  0  0  0  0  0  0  0  0
   10.3810   47.5560   47.7000 O   0  0  0  0  0  0  0  0  0  0  0  0
   11.2700   46.5080   47.2660 C   0  0  0  0  0  0  0  0  0  0  0  0
    7.7190   46.2500   47.8490 O   0  0  0  0  0  0  0  0  0  0  0  0
    6.9310   47.0330   47.1480 C   0  0  0  0  0  0  0  0  0  0  0  0
    5.8400   47.6310   47.5750 O   0  0  0  0  0  0  0  0  0  0  0  0
    7.2720   47.1120   45.6650 C   0  0  2  0  0  0  0  0  0  0  0  0
    6.0700   47.0240   44.8380 O   0  0  0  0  0  0  0  0  0  0  0  0
    5.7600   47.9150   44.7790 H   0  0  0  0  0  0  0  0  0  0  0  0
    8.2910   45.9130   45.4290 C   0  0  0  0  0  0  0  0  0  0  0  0
    8.2280   45.2320   44.0120 C   0  0  0  0  0  0  0  0  0  0  0  0
    7.2530   44.5390   43.6360 O   0  0  0  0  0  0  0  0  0  0  0  0
    9.3570   45.4560   43.3680 O   0  0  0  0  0  0  0  0  0  0  0  0
    9.2010   45.8740   41.9460 C   0  0  0  0  0  0  0  0  0  0  0  0
    7.9350   48.4560   45.5580 C   0  0  0  0  0  0  0  0  0  0  0  0
    7.5370   49.3940   44.3210 C   0  0  0  0  0  0  0  0  0  0  0  0
    8.4050   50.6120   44.3070 C   0  0  0  0  0  0  0  0  0  0  0  0
    7.6520   51.9840   44.2970 C   0  0  0  0  0  0  0  0  0  0  0  0
    6.8550   52.2540   43.0110 C   0  0  0  0  0  0  0  0  0  0  0  0
    6.7290   51.9140   45.4520 C   0  0  0  0  0  0  0  0  0  0  0  0
    8.5680   53.0620   44.4970 O   0  0  0  0  0  0  0  0  0  0  0  0
    8.6880   53.1460   45.4410 H   0  0  0  0  0  0  0  0  0  0  0  0
  1 24  1  6  0  0  0
  1  2  1  0  0  0  0
  2 19  1  1  0  0  0
  3  2  1  0  0  0  0
  3 11  2  0  0  0  0
  4  3  1  0  0  0  0
  5  4  2  0  0  0  0
  5  9  1  0  0  0  0
  6  7  1  0  0  0  0
  6  5  1  0  0  0  0
  7  8  1  0  0  0  0
  8  9  1  0  0  0  0
  9 10  2  0  0  0  0
 10 11  1  0  0  0  0
 11 12  1  0  0  0  0
 12 13  1  0  0  0  0
 14 19  1  6  0  0  0
 14 16  1  0  0  0  0
 14 13  1  0  0  0  0
 15 14  1  0  0  0  0
 17 16  1  0  0  0  0
 18 17  1  0  0  0  0
 19 20  1  6  0  0  0
 19 18  1  0  0  0  0
 21 22  1  6  0  0  0
 21  1  1  0  0  0  0
 21 20  1  0  0  0  0
 23 22  1  0  0  0  0
 25 26  2  0  0  0  0
 25 24  1  0  0  0  0
 27 30  1  6  0  0  0
 27 25  1  0  0  0  0
 28 27  1  0  0  0  0
 29 28  1  0  0  0  0
 31 30  1  0  0  0  0
 32 31  2  0  0  0  0
 33 31  1  0  0  0  0
 34 33  1  0  0  0  0
 35 27  1  0  0  0  0
 36 35  1  0  0  0  0
 37 36  1  0  0  0  0
 38 37  1  0  0  0  0
 38 41  1  0  0  0  0
 38 40  1  0  0  0  0
 39 38  1  0  0  0  0
 41 42  1  0  0  0  0
M  END
>  <minimizedAffinity>
-8.29577541

$$$$

 OpenBabel12271915013D

 42 46  0  0  1  0  0  0  0  0999 V2000
    9.8150   47.1630   49.8750 C   0  0  1  0  0  0  0  0  0  0  0  0
    8.8980   46.4350   50.9850 C   0  0  1  0  0  0  0  0  0  0  0  0
    9.4320   45.1600   51.6940 C   0  0  0  0  0  0  0  0  0  0  0  0
   10.7550   44.6710   51.4530 C   0  0  0  0  0  0  0  0  0  0  0  0
   11.2020   43.5500   52.1230 C   0  0  0  0  0  0  0  0  0  0  0  0
   12.4100   42.9870   51.9410 O   0  0  0  0  0  0  0  0  0  0  0  0
   12.1940   41.7300   52.6820 C   0  0  0  0  0  0  0  0  0  0  0  0
   11.0430   41.8610   53.6000 O   0  0  0  0  0  0  0  0  0  0  0  0
   10.4370   42.9430   53.0350 C   0  0  0  0  0  0  0  0  0  0  0  0
    9.2020   43.3860   53.3450 C   0  0  0  0  0  0  0  0  0  0  0  0
    8.6520   44.5190   52.6720 C   0  0  0  0  0  0  0  0  0  0  0  0
    7.2880   44.9430   53.0820 C   0  0  0  0  0  0  0  0  0  0  0  0
    7.0860   46.3870   53.3140 C   0  0  0  0  0  0  0  0  0  0  0  0
    8.4110   47.1650   53.3430 N   0  0  2  0  0  0  0  0  0  0  0  0
    9.1490   46.5500   53.7720 H   0  0  0  0  0  0  0  0  0  0  0  0
    8.2290   48.4520   54.0170 C   0  0  0  0  0  0  0  0  0  0  0  0
    7.6430   49.3390   52.9170 C   0  0  0  0  0  0  0  0  0  0  0  0
    7.9040   48.6750   51.5930 C   0  0  0  0  0  0  0  0  0  0  0  0
    8.8850   47.5530   51.9740 C   0  0  2  0  0  0  0  0  0  0  0  0
   10.3100   48.1140   51.9390 C   0  0  0  0  0  0  0  0  0  0  0  0
   10.7960   47.8690   50.7770 C   0  0  1  0  0  0  0  0  0  0  0  0
   12.0570   48.1390   50.3710 O   0  0  0  0  0  0  0  0  0  0  0  0
   12.5470   49.4090   50.8450 C   0  0  0  0  0  0  0  0  0  0  0  0
   10.3780   46.2190   48.8520 O   0  0  0  0  0  0  0  0  0  0  0  0
   10.2220   46.6450   47.6180 C   0  0  0  0  0  0  0  0  0  0  0  0
   10.9100   47.5970   47.0260 O   0  0  0  0  0  0  0  0  0  0  0  0
    9.0260   46.0490   46.8880 C   0  0  2  0  0  0  0  0  0  0  0  0
    8.5700   44.8190   47.5310 O   0  0  0  0  0  0  0  0  0  0  0  0
    7.9700   45.1120   48.2000 H   0  0  0  0  0  0  0  0  0  0  0  0
    9.5410   45.8310   45.3970 C   0  0  0  0  0  0  0  0  0  0  0  0
    8.9540   44.5790   44.6480 C   0  0  0  0  0  0  0  0  0  0  0  0
    8.9750   43.4240   45.1380 O   0  0  0  0  0  0  0  0  0  0  0  0
    8.5300   44.9420   43.4540 O   0  0  0  0  0  0  0  0  0  0  0  0
    7.5100   44.0410   42.8440 C   0  0  0  0  0  0  0  0  0  0  0  0
    8.0070   47.1500   46.9850 C   0  0  0  0  0  0  0  0  0  0  0  0
    7.2750   47.6170   45.6380 C   0  0  0  0  0  0  0  0  0  0  0  0
    7.7700   48.9690   45.2340 C   0  0  0  0  0  0  0  0  0  0  0  0
    8.3020   49.0890   43.7680 C   0  0  0  0  0  0  0  0  0  0  0  0
    7.7600   50.3050   43.0010 C   0  0  0  0  0  0  0  0  0  0  0  0
    9.7710   49.2020   43.9100 C   0  0  0  0  0  0  0  0  0  0  0  0
    7.9960   47.9090   43.0240 O   0  0  0  0  0  0  0  0  0  0  0  0
    8.6890   47.2800   43.2120 H   0  0  0  0  0  0  0  0  0  0  0  0
  1 24  1  6  0  0  0
  1 21  1  0  0  0  0
  1  2  1  0  0  0  0
  2  3  1  0  0  0  0
  2 19  1  1  0  0  0
  3 11  1  0  0  0  0
  4  3  2  0  0  0  0
  4  5  1  0  0  0  0
  5  9  2  0  0  0  0
  6  5  1  0  0  0  0
  6  7  1  0  0  0  0
  7  8  1  0  0  0  0
  9 10  1  0  0  0  0
  9  8  1  0  0  0  0
 11 12  1  0  0  0  0
 11 10  2  0  0  0  0
 12 13  1  0  0  0  0
 13 14  1  0  0  0  0
 14 19  1  6  0  0  0
 14 15  1  0  0  0  0
 14 16  1  0  0  0  0
 17 16  1  0  0  0  0
 18 17  1  0  0  0  0
 19 18  1  6  0  0  0
 20 19  1  0  0  0  0
 21 22  1  1  0  0  0
 21 20  1  0  0  0  0
 22 23  1  0  0  0  0
 25 24  1  0  0  0  0
 26 25  2  0  0  0  0
 27 30  1  6  0  0  0
 27 35  1  0  0  0  0
 27 28  1  0  0  0  0
 27 25  1  0  0  0  0
 28 29  1  0  0  0  0
 31 32  2  0  0  0  0
 31 30  1  0  0  0  0
 33 31  1  0  0  0  0
 34 33  1  0  0  0  0
 36 35  1  0  0  0  0
 37 36  1  0  0  0  0
 38 40  1  0  0  0  0
 38 37  1  0  0  0  0
 39 38  1  0  0  0  0
 41 42  1  0  0  0  0
 41 38  1  0  0  0  0
M  END
>  <minimizedAffinity>
-8.17892838

$$$$

 OpenBabel12271915013D

 42 46  0  0  1  0  0  0  0  0999 V2000
    9.0030   47.0010   46.3550 C   0  0  1  0  0  0  0  0  0  0  0  0
    9.2750   46.4990   44.8450 C   0  0  1  0  0  0  0  0  0  0  0  0
    9.2120   44.9790   44.5280 C   0  0  0  0  0  0  0  0  0  0  0  0
    8.8290   44.0240   45.5230 C   0  0  0  0  0  0  0  0  0  0  0  0
    8.7590   42.6860   45.1940 C   0  0  0  0  0  0  0  0  0  0  0  0
    8.4480   41.7060   46.0610 O   0  0  0  0  0  0  0  0  0  0  0  0
    8.8040   40.5390   45.2300 C   0  0  0  0  0  0  0  0  0  0  0  0
    8.8720   40.9210   43.8040 O   0  0  0  0  0  0  0  0  0  0  0  0
    8.9930   42.2710   43.9460 C   0  0  0  0  0  0  0  0  0  0  0  0
    9.3090   43.1260   42.9530 C   0  0  0  0  0  0  0  0  0  0  0  0
    9.4340   44.5240   43.2170 C   0  0  0  0  0  0  0  0  0  0  0  0
    9.7760   45.3950   42.0630 C   0  0  0  0  0  0  0  0  0  0  0  0
    8.9860   46.6330   41.9120 C   0  0  0  0  0  0  0  0  0  0  0  0
    7.7630   46.6630   42.8410 N   0  0  2  0  0  0  0  0  0  0  0  0
    7.3940   45.6820   42.9380 H   0  0  0  0  0  0  0  0  0  0  0  0
    6.7800   47.6340   42.3550 C   0  0  0  0  0  0  0  0  0  0  0  0
    7.3150   48.9640   42.8890 C   0  0  0  0  0  0  0  0  0  0  0  0
    8.3070   48.6640   43.9800 C   0  0  0  0  0  0  0  0  0  0  0  0
    8.0930   47.1590   44.2170 C   0  0  2  0  0  0  0  0  0  0  0  0
    6.9640   46.9800   45.2370 C   0  0  0  0  0  0  0  0  0  0  0  0
    7.5000   46.8810   46.3980 C   0  0  1  0  0  0  0  0  0  0  0  0
    6.8470   46.6380   47.5570 O   0  0  0  0  0  0  0  0  0  0  0  0
    5.7370   47.5290   47.7800 C   0  0  0  0  0  0  0  0  0  0  0  0
    9.7840   46.2410   47.3880 O   0  0  0  0  0  0  0  0  0  0  0  0
   10.3890   47.0230   48.2530 C   0  0  0  0  0  0  0  0  0  0  0  0
   11.5290   47.6560   48.0740 O   0  0  0  0  0  0  0  0  0  0  0  0
    9.7470   47.0570   49.6340 C   0  0  2  0  0  0  0  0  0  0  0  0
    8.5770   47.9330   49.6540 O   0  0  0  0  0  0  0  0  0  0  0  0
    7.8640   47.3790   49.3750 H   0  0  0  0  0  0  0  0  0  0  0  0
   10.9160   47.5400   50.6020 C   0  0  0  0  0  0  0  0  0  0  0  0
   10.4700   48.4310   51.8190 C   0  0  0  0  0  0  0  0  0  0  0  0
    9.2810   48.4910   52.2150 O   0  0  0  0  0  0  0  0  0  0  0  0
   11.5060   49.1140   52.2660 O   0  0  0  0  0  0  0  0  0  0  0  0
   12.5090   49.4890   51.2290 C   0  0  0  0  0  0  0  0  0  0  0  0
    9.3800   45.6170   49.8560 C   0  0  0  0  0  0  0  0  0  0  0  0
    8.1830   45.2950   50.8720 C   0  0  0  0  0  0  0  0  0  0  0  0
    8.7290   45.0830   52.2480 C   0  0  0  0  0  0  0  0  0  0  0  0
    7.6690   44.8010   53.3640 C   0  0  0  0  0  0  0  0  0  0  0  0
    7.8300   43.4370   54.0520 C   0  0  0  0  0  0  0  0  0  0  0  0
    7.8670   45.8860   54.3520 C   0  0  0  0  0  0  0  0  0  0  0  0
    6.3450   44.8890   52.8350 O   0  0  0  0  0  0  0  0  0  0  0  0
    6.1040   45.8120   52.8540 H   0  0  0  0  0  0  0  0  0  0  0  0
  1 21  1  0  0  0  0
  1 24  1  1  0  0  0
  2 19  1  6  0  0  0
  2  1  1  0  0  0  0
  3  2  1  0  0  0  0
  3  4  2  0  0  0  0
  5  4  1  0  0  0  0
  5  6  1  0  0  0  0
  7  6  1  0  0  0  0
  8  9  1  0  0  0  0
  8  7  1  0  0  0  0
  9  5  2  0  0  0  0
 10 11  2  0  0  0  0
 10  9  1  0  0  0  0
 11  3  1  0  0  0  0
 12 11  1  0  0  0  0
 13 12  1  0  0  0  0
 13 14  1  0  0  0  0
 14 15  1  0  0  0  0
 14 19  1  1  0  0  0
 16 14  1  0  0  0  0
 16 17  1  0  0  0  0
 17 18  1  0  0  0  0
 19 18  1  6  0  0  0
 19 20  1  0  0  0  0
 20 21  1  0  0  0  0
 21 22  1  6  0  0  0
 22 23  1  0  0  0  0
 24 25  1  0  0  0  0
 25 27  1  0  0  0  0
 26 25  2  0  0  0  0
 27 28  1  0  0  0  0
 27 35  1  1  0  0  0
 27 30  1  0  0  0  0
 29 28  1  0  0  0  0
 30 31  1  0  0  0  0
 31 32  2  0  0  0  0
 31 33  1  0  0  0  0
 34 33  1  0  0  0  0
 35 36  1  0  0  0  0
 36 37  1  0  0  0  0
 37 38  1  0  0  0  0
 38 39  1  0  0  0  0
 38 40  1  0  0  0  0
 41 42  1  0  0  0  0
 41 38  1  0  0  0  0
M  END
>  <minimizedAffinity>
-8.14942455

$$$$

 OpenBabel12271915013D

 42 46  0  0  1  0  0  0  0  0999 V2000
    9.1020   46.9100   46.0630 C   0  0  1  0  0  0  0  0  0  0  0  0
    9.3000   46.5280   44.5080 C   0  0  1  0  0  0  0  0  0  0  0  0
    9.1890   45.0410   44.0710 C   0  0  0  0  0  0  0  0  0  0  0  0
    8.8240   44.0160   45.0000 C   0  0  0  0  0  0  0  0  0  0  0  0
    8.7100   42.7100   44.5680 C   0  0  0  0  0  0  0  0  0  0  0  0
    8.4110   41.6690   45.3650 O   0  0  0  0  0  0  0  0  0  0  0  0
    8.7060   40.5680   44.4280 C   0  0  0  0  0  0  0  0  0  0  0  0
    8.7240   41.0630   43.0360 O   0  0  0  0  0  0  0  0  0  0  0  0
    8.8830   42.3940   43.2810 C   0  0  0  0  0  0  0  0  0  0  0  0
    9.1770   43.3210   42.3480 C   0  0  0  0  0  0  0  0  0  0  0  0
    9.3460   44.6900   42.7190 C   0  0  0  0  0  0  0  0  0  0  0  0
    9.6610   45.6460   41.6260 C   0  0  0  0  0  0  0  0  0  0  0  0
    8.8950   46.9080   41.6090 C   0  0  0  0  0  0  0  0  0  0  0  0
    7.7120   46.8860   42.5900 N   0  0  2  0  0  0  0  0  0  0  0  0
    7.3250   45.9080   42.6220 H   0  0  0  0  0  0  0  0  0  0  0  0
    6.7330   47.9130   42.2260 C   0  0  0  0  0  0  0  0  0  0  0  0
    7.3200   49.1840   42.8430 C   0  0  0  0  0  0  0  0  0  0  0  0
    8.3490   48.7760   43.8630 C   0  0  0  0  0  0  0  0  0  0  0  0
    8.1090   47.2610   43.9860 C   0  0  2  0  0  0  0  0  0  0  0  0
    7.0190   47.0210   45.0350 C   0  0  0  0  0  0  0  0  0  0  0  0
    7.6000   46.8170   46.1610 C   0  0  1  0  0  0  0  0  0  0  0  0
    6.9880   46.4930   47.3220 O   0  0  0  0  0  0  0  0  0  0  0  0
    5.9400   47.4120   47.6870 C   0  0  0  0  0  0  0  0  0  0  0  0
    9.9060   46.0530   46.9970 O   0  0  0  0  0  0  0  0  0  0  0  0
   10.3910   46.7200   48.0190 C   0  0  0  0  0  0  0  0  0  0  0  0
   11.3000   47.6700   47.9750 O   0  0  0  0  0  0  0  0  0  0  0  0
    9.9320   46.2150   49.3810 C   0  0  2  0  0  0  0  0  0  0  0  0
   11.0310   46.2140   50.3450 O   0  0  0  0  0  0  0  0  0  0  0  0
   11.0260   47.0870   50.7070 H   0  0  0  0  0  0  0  0  0  0  0  0
    9.3460   44.7630   49.0880 C   0  0  0  0  0  0  0  0  0  0  0  0
   10.3000   43.5600   49.4300 C   0  0  0  0  0  0  0  0  0  0  0  0
   10.5930   43.2410   50.6070 O   0  0  0  0  0  0  0  0  0  0  0  0
   10.7610   43.0350   48.3120 O   0  0  0  0  0  0  0  0  0  0  0  0
   10.5270   41.5710   48.1580 C   0  0  0  0  0  0  0  0  0  0  0  0
    8.8590   47.2010   49.7470 C   0  0  0  0  0  0  0  0  0  0  0  0
    8.8710   47.8080   51.2300 C   0  0  0  0  0  0  0  0  0  0  0  0
    7.5440   48.4280   51.5360 C   0  0  0  0  0  0  0  0  0  0  0  0
    6.5820   47.5720   52.4240 C   0  0  0  0  0  0  0  0  0  0  0  0
    7.2850   46.8140   53.5610 C   0  0  0  0  0  0  0  0  0  0  0  0
    5.6260   48.5490   52.9900 C   0  0  0  0  0  0  0  0  0  0  0  0
    5.8660   46.6290   51.6250 O   0  0  0  0  0  0  0  0  0  0  0  0
    5.1100   47.0900   51.2700 H   0  0  0  0  0  0  0  0  0  0  0  0
  1 21  1  0  0  0  0
  1 24  1  1  0  0  0
  2 19  1  6  0  0  0
  2  1  1  0  0  0  0
  3  2  1  0  0  0  0
  3  4  2  0  0  0  0
  5  4  1  0  0  0  0
  5  6  1  0  0  0  0
  7  6  1  0  0  0  0
  8  9  1  0  0  0  0
  8  7  1  0  0  0  0
  9  5  2  0  0  0  0
 10 11  2  0  0  0  0
 10  9  1  0  0  0  0
 11  3  1  0  0  0  0
 12 11  1  0  0  0  0
 13 12  1  0  0  0  0
 13 14  1  0  0  0  0
 14 15  1  0  0  0  0
 14 19  1  1  0  0  0
 16 14  1  0  0  0  0
 16 17  1  0  0  0  0
 17 18  1  0  0  0  0
 19 18  1  1  0  0  0
 19 20  1  0  0  0  0
 20 21  1  0  0  0  0
 21 22  1  6  0  0  0
 22 23  1  0  0  0  0
 24 25  1  0  0  0  0
 25 27  1  0  0  0  0
 26 25  2  0  0  0  0
 27 30  1  6  0  0  0
 27 35  1  0  0  0  0
 27 28  1  0  0  0  0
 28 29  1  0  0  0  0
 30 31  1  0  0  0  0
 31 32  2  0  0  0  0
 33 31  1  0  0  0  0
 34 33  1  0  0  0  0
 35 36  1  0  0  0  0
 36 37  1  0  0  0  0
 37 38  1  0  0  0  0
 38 40  1  0  0  0  0
 38 39  1  0  0  0  0
 41 38  1  0  0  0  0
 42 41  1  0  0  0  0
M  END
>  <minimizedAffinity>
-8.12341309

$$$$

 OpenBabel12271915013D

 42 46  0  0  1  0  0  0  0  0999 V2000
   10.0460   47.2770   50.0390 C   0  0  1  0  0  0  0  0  0  0  0  0
    9.0870   46.5500   51.1150 C   0  0  1  0  0  0  0  0  0  0  0  0
    9.5700   45.2420   51.8000 C   0  0  0  0  0  0  0  0  0  0  0  0
   10.8810   44.7180   51.5680 C   0  0  0  0  0  0  0  0  0  0  0  0
   11.2810   43.5680   52.2160 C   0  0  0  0  0  0  0  0  0  0  0  0
   12.4740   42.9720   52.0400 O   0  0  0  0  0  0  0  0  0  0  0  0
   12.2080   41.7040   52.7460 C   0  0  0  0  0  0  0  0  0  0  0  0
   11.0460   41.8480   53.6470 O   0  0  0  0  0  0  0  0  0  0  0  0
   10.4830   42.9620   53.1010 C   0  0  0  0  0  0  0  0  0  0  0  0
    9.2570   43.4350   53.4010 C   0  0  0  0  0  0  0  0  0  0  0  0
    8.7540   44.6020   52.7490 C   0  0  0  0  0  0  0  0  0  0  0  0
    7.3970   45.0590   53.1470 C   0  0  0  0  0  0  0  0  0  0  0  0
    7.2360   46.5020   53.4120 C   0  0  0  0  0  0  0  0  0  0  0  0
    8.5830   47.2360   53.4820 N   0  0  2  0  0  0  0  0  0  0  0  0
    9.2950   46.5880   53.9080 H   0  0  0  0  0  0  0  0  0  0  0  0
    8.4290   48.5120   54.1860 C   0  0  0  0  0  0  0  0  0  0  0  0
    7.8900   49.4440   53.1000 C   0  0  0  0  0  0  0  0  0  0  0  0
    8.1530   48.8050   51.7630 C   0  0  0  0  0  0  0  0  0  0  0  0
    9.0930   47.6430   52.1320 C   0  0  2  0  0  0  0  0  0  0  0  0
   10.5340   48.1610   52.1340 C   0  0  0  0  0  0  0  0  0  0  0  0
   11.0330   47.9300   50.9740 C   0  0  1  0  0  0  0  0  0  0  0  0
   12.3080   48.1700   50.5960 O   0  0  0  0  0  0  0  0  0  0  0  0
   12.7020   49.5450   50.7670 C   0  0  0  0  0  0  0  0  0  0  0  0
   10.5960   46.3420   49.0010 O   0  0  0  0  0  0  0  0  0  0  0  0
   10.2980   46.7020   47.7740 C   0  0  0  0  0  0  0  0  0  0  0  0
   10.7810   47.7380   47.1220 O   0  0  0  0  0  0  0  0  0  0  0  0
    9.1750   45.8980   47.1320 C   0  0  2  0  0  0  0  0  0  0  0  0
    9.5040   45.5280   45.7570 O   0  0  0  0  0  0  0  0  0  0  0  0
    9.9870   44.7200   45.8400 H   0  0  0  0  0  0  0  0  0  0  0  0
    7.8970   46.8420   47.2450 C   0  0  0  0  0  0  0  0  0  0  0  0
    7.4340   47.5270   45.9070 C   0  0  0  0  0  0  0  0  0  0  0  0
    7.6220   48.7440   45.6690 O   0  0  0  0  0  0  0  0  0  0  0  0
    6.7880   46.6490   45.1660 O   0  0  0  0  0  0  0  0  0  0  0  0
    6.7020   46.9860   43.7160 C   0  0  0  0  0  0  0  0  0  0  0  0
    9.0800   44.6980   48.0330 C   0  0  0  0  0  0  0  0  0  0  0  0
    9.7540   43.3320   47.5370 C   0  0  0  0  0  0  0  0  0  0  0  0
   10.8180   42.9110   48.5000 C   0  0  0  0  0  0  0  0  0  0  0  0
   11.0260   41.3680   48.6540 C   0  0  0  0  0  0  0  0  0  0  0  0
   10.5180   40.5440   47.4600 C   0  0  0  0  0  0  0  0  0  0  0  0
   12.4900   41.1990   48.7910 C   0  0  0  0  0  0  0  0  0  0  0  0
   10.3890   40.8910   49.8390 O   0  0  0  0  0  0  0  0  0  0  0  0
   11.0030   41.0340   50.5560 H   0  0  0  0  0  0  0  0  0  0  0  0
  1 24  1  6  0  0  0
  1 21  1  0  0  0  0
  1  2  1  0  0  0  0
  2  3  1  0  0  0  0
  2 19  1  1  0  0  0
  3 11  1  0  0  0  0
  4  3  2  0  0  0  0
  4  5  1  0  0  0  0
  5  9  2  0  0  0  0
  6  5  1  0  0  0  0
  6  7  1  0  0  0  0
  7  8  1  0  0  0  0
  9 10  1  0  0  0  0
  9  8  1  0  0  0  0
 11 12  1  0  0  0  0
 11 10  2  0  0  0  0
 12 13  1  0  0  0  0
 13 14  1  0  0  0  0
 14 19  1  6  0  0  0
 14 15  1  0  0  0  0
 14 16  1  0  0  0  0
 17 16  1  0  0  0  0
 18 17  1  0  0  0  0
 19 18  1  6  0  0  0
 19 20  1  0  0  0  0
 21 22  1  1  0  0  0
 21 20  1  0  0  0  0
 22 23  1  0  0  0  0
 25 24  1  0  0  0  0
 26 25  2  0  0  0  0
 27 30  1  1  0  0  0
 27 25  1  0  0  0  0
 27 35  1  0  0  0  0
 28 29  1  0  0  0  0
 28 27  1  0  0  0  0
 31 30  1  0  0  0  0
 32 31  2  0  0  0  0
 33 31  1  0  0  0  0
 34 33  1  0  0  0  0
 36 35  1  0  0  0  0
 36 37  1  0  0  0  0
 37 38  1  0  0  0  0
 38 40  1  0  0  0  0
 38 41  1  0  0  0  0
 39 38  1  0  0  0  0
 41 42  1  0  0  0  0
M  END
>  <minimizedAffinity>
-8.0326519

$$$$

 OpenBabel12271915013D

 42 46  0  0  1  0  0  0  0  0999 V2000
    8.7730   47.0400   44.4100 C   0  0  1  0  0  0  0  0  0  0  0  0
    8.7230   46.6420   42.8470 C   0  0  1  0  0  0  0  0  0  0  0  0
    8.5060   45.1560   42.4500 C   0  0  0  0  0  0  0  0  0  0  0  0
    8.2570   44.1480   43.4350 C   0  0  0  0  0  0  0  0  0  0  0  0
    8.0430   42.8440   43.0390 C   0  0  0  0  0  0  0  0  0  0  0  0
    7.8390   41.8170   43.8840 O   0  0  0  0  0  0  0  0  0  0  0  0
    7.9580   40.7010   42.9260 C   0  0  0  0  0  0  0  0  0  0  0  0
    7.7800   41.1860   41.5420 O   0  0  0  0  0  0  0  0  0  0  0  0
    8.0110   42.5130   41.7450 C   0  0  0  0  0  0  0  0  0  0  0  0
    8.1870   43.4250   40.7680 C   0  0  0  0  0  0  0  0  0  0  0  0
    8.4480   44.7910   41.0930 C   0  0  0  0  0  0  0  0  0  0  0  0
    8.6210   45.7290   39.9540 C   0  0  0  0  0  0  0  0  0  0  0  0
    7.8960   47.0130   40.0390 C   0  0  0  0  0  0  0  0  0  0  0  0
    6.8750   47.0320   41.1860 N   0  0  2  0  0  0  0  0  0  0  0  0
    6.4690   46.0670   41.2880 H   0  0  0  0  0  0  0  0  0  0  0  0
    5.8810   48.0850   40.9630 C   0  0  0  0  0  0  0  0  0  0  0  0
    6.5900   49.3420   41.4700 C   0  0  0  0  0  0  0  0  0  0  0  0
    7.7490   48.9120   42.3270 C   0  0  0  0  0  0  0  0  0  0  0  0
    7.4880   47.4060   42.5030 C   0  0  2  0  0  0  0  0  0  0  0  0
    6.5630   47.2050   43.7060 C   0  0  0  0  0  0  0  0  0  0  0  0
    7.3010   46.9920   44.7340 C   0  0  1  0  0  0  0  0  0  0  0  0
    6.8630   46.6950   45.9780 O   0  0  0  0  0  0  0  0  0  0  0  0
    6.5000   47.8590   46.7450 C   0  0  0  0  0  0  0  0  0  0  0  0
    9.6850   46.1670   45.2220 O   0  0  0  0  0  0  0  0  0  0  0  0
   10.2810   46.8120   46.1990 C   0  0  0  0  0  0  0  0  0  0  0  0
   10.9490   47.9410   46.0990 O   0  0  0  0  0  0  0  0  0  0  0  0
   10.2950   46.0730   47.5310 C   0  0  2  0  0  0  0  0  0  0  0  0
   11.6530   45.6950   47.9150 O   0  0  0  0  0  0  0  0  0  0  0  0
   11.9870   46.4520   48.3720 H   0  0  0  0  0  0  0  0  0  0  0  0
    9.3320   44.8250   47.3010 C   0  0  0  0  0  0  0  0  0  0  0  0
    9.6060   43.5740   48.2150 C   0  0  0  0  0  0  0  0  0  0  0  0
   10.5800   42.8050   48.0350 O   0  0  0  0  0  0  0  0  0  0  0  0
    8.6360   43.4570   49.1000 O   0  0  0  0  0  0  0  0  0  0  0  0
    9.0300   43.7390   50.5100 C   0  0  0  0  0  0  0  0  0  0  0  0
    9.7020   47.0860   48.4690 C   0  0  0  0  0  0  0  0  0  0  0  0
   10.6390   47.6740   49.6290 C   0  0  0  0  0  0  0  0  0  0  0  0
    9.9320   47.5930   50.9430 C   0  0  0  0  0  0  0  0  0  0  0  0
   10.7570   48.0540   52.1900 C   0  0  0  0  0  0  0  0  0  0  0  0
   11.8710   49.0620   51.8680 C   0  0  0  0  0  0  0  0  0  0  0  0
    9.7610   48.6800   53.0880 C   0  0  0  0  0  0  0  0  0  0  0  0
   11.3390   46.9300   52.8520 O   0  0  0  0  0  0  0  0  0  0  0  0
   10.6710   46.5810   53.4370 H   0  0  0  0  0  0  0  0  0  0  0  0
  1 21  1  0  0  0  0
  1 24  1  1  0  0  0
  2 19  1  6  0  0  0
  2  1  1  0  0  0  0
  3  2  1  0  0  0  0
  3  4  2  0  0  0  0
  5  4  1  0  0  0  0
  5  6  1  0  0  0  0
  7  6  1  0  0  0  0
  8  9  1  0  0  0  0
  8  7  1  0  0  0  0
  9  5  2  0  0  0  0
 10 11  2  0  0  0  0
 10  9  1  0  0  0  0
 11  3  1  0  0  0  0
 12 13  1  0  0  0  0
 12 11  1  0  0  0  0
 13 14  1  0  0  0  0
 14 15  1  0  0  0  0
 14 19  1  1  0  0  0
 16 14  1  0  0  0  0
 16 17  1  0  0  0  0
 17 18  1  0  0  0  0
 19 18  1  6  0  0  0
 19 20  1  0  0  0  0
 20 21  1  0  0  0  0
 21 22  1  6  0  0  0
 22 23  1  0  0  0  0
 24 25  1  0  0  0  0
 25 27  1  0  0  0  0
 26 25  2  0  0  0  0
 27 30  1  6  0  0  0
 27 28  1  0  0  0  0
 27 35  1  0  0  0  0
 28 29  1  0  0  0  0
 30 31  1  0  0  0  0
 31 33  1  0  0  0  0
 32 31  2  0  0  0  0
 33 34  1  0  0  0  0
 35 36  1  0  0  0  0
 36 37  1  0  0  0  0
 37 38  1  0  0  0  0
 38 41  1  0  0  0  0
 38 40  1  0  0  0  0
 39 38  1  0  0  0  0
 41 42  1  0  0  0  0
M  END
>  <minimizedAffinity>
-8.03108025

$$$$

 OpenBabel12271915013D

 42 46  0  0  1  0  0  0  0  0999 V2000
    9.6400   47.3950   50.0030 C   0  0  1  0  0  0  0  0  0  0  0  0
    8.8940   46.6600   51.2310 C   0  0  1  0  0  0  0  0  0  0  0  0
    9.4660   45.3220   51.7740 C   0  0  0  0  0  0  0  0  0  0  0  0
   10.6890   44.7750   51.2730 C   0  0  0  0  0  0  0  0  0  0  0  0
   11.1780   43.5970   51.8000 C   0  0  0  0  0  0  0  0  0  0  0  0
   12.2950   42.9790   51.3750 O   0  0  0  0  0  0  0  0  0  0  0  0
   12.1380   41.6980   52.0890 C   0  0  0  0  0  0  0  0  0  0  0  0
   11.1830   41.8420   53.2080 O   0  0  0  0  0  0  0  0  0  0  0  0
   10.5550   42.9850   52.8110 C   0  0  0  0  0  0  0  0  0  0  0  0
    9.4270   43.4770   53.3620 C   0  0  0  0  0  0  0  0  0  0  0  0
    8.8370   44.6730   52.8510 C   0  0  0  0  0  0  0  0  0  0  0  0
    7.5990   45.1490   53.5230 C   0  0  0  0  0  0  0  0  0  0  0  0
    7.5350   46.5870   53.8490 C   0  0  0  0  0  0  0  0  0  0  0  0
    8.8900   47.2880   53.6660 N   0  0  2  0  0  0  0  0  0  0  0  0
    9.6530   46.6120   53.9260 H   0  0  0  0  0  0  0  0  0  0  0  0
    8.9150   48.5460   54.4180 C   0  0  0  0  0  0  0  0  0  0  0  0
    8.1970   49.5210   53.4830 C   0  0  0  0  0  0  0  0  0  0  0  0
    8.1720   48.9160   52.1060 C   0  0  0  0  0  0  0  0  0  0  0  0
    9.1320   47.7220   52.2520 C   0  0  2  0  0  0  0  0  0  0  0  0
   10.5590   48.2060   51.9790 C   0  0  0  0  0  0  0  0  0  0  0  0
   10.8110   47.9980   50.7380 C   0  0  1  0  0  0  0  0  0  0  0  0
   11.9920   48.2200   50.1190 O   0  0  0  0  0  0  0  0  0  0  0  0
   12.6600   49.4090   50.5800 C   0  0  0  0  0  0  0  0  0  0  0  0
    9.9470   46.4790   48.8540 O   0  0  0  0  0  0  0  0  0  0  0  0
    9.0310   46.5090   47.9120 C   0  0  0  0  0  0  0  0  0  0  0  0
    7.7840   46.1020   48.0180 O   0  0  0  0  0  0  0  0  0  0  0  0
    9.5440   46.9330   46.5420 C   0  0  2  0  0  0  0  0  0  0  0  0
   10.7580   47.7390   46.6550 O   0  0  0  0  0  0  0  0  0  0  0  0
   11.4590   47.1060   46.6830 H   0  0  0  0  0  0  0  0  0  0  0  0
    8.3230   47.7160   45.8870 C   0  0  0  0  0  0  0  0  0  0  0  0
    8.7040   48.9710   45.0180 C   0  0  0  0  0  0  0  0  0  0  0  0
    9.7740   49.0460   44.3690 O   0  0  0  0  0  0  0  0  0  0  0  0
    7.7750   49.8970   45.1550 O   0  0  0  0  0  0  0  0  0  0  0  0
    8.0810   51.2000   44.4980 C   0  0  0  0  0  0  0  0  0  0  0  0
    9.8020   45.6130   45.8720 C   0  0  0  0  0  0  0  0  0  0  0  0
    8.6990   45.0610   44.8490 C   0  0  0  0  0  0  0  0  0  0  0  0
    9.3310   44.7770   43.5240 C   0  0  0  0  0  0  0  0  0  0  0  0
    8.9910   45.7860   42.3780 C   0  0  0  0  0  0  0  0  0  0  0  0
    9.1870   45.2190   40.9630 C   0  0  0  0  0  0  0  0  0  0  0  0
    7.5660   46.1260   42.5870 C   0  0  0  0  0  0  0  0  0  0  0  0
    9.7760   46.9730   42.5030 O   0  0  0  0  0  0  0  0  0  0  0  0
    9.3180   47.5380   43.1220 H   0  0  0  0  0  0  0  0  0  0  0  0
  1 24  1  6  0  0  0
  1 21  1  0  0  0  0
  1  2  1  0  0  0  0
  2  3  1  0  0  0  0
  2 19  1  1  0  0  0
  3 11  1  0  0  0  0
  4  3  2  0  0  0  0
  4  5  1  0  0  0  0
  5  9  2  0  0  0  0
  6  5  1  0  0  0  0
  6  7  1  0  0  0  0
  7  8  1  0  0  0  0
  9  8  1  0  0  0  0
  9 10  1  0  0  0  0
 11 10  2  0  0  0  0
 11 12  1  0  0  0  0
 12 13  1  0  0  0  0
 14 19  1  6  0  0  0
 14 13  1  0  0  0  0
 14 15  1  0  0  0  0
 14 16  1  0  0  0  0
 17 16  1  0  0  0  0
 18 19  1  0  0  0  0
 18 17  1  0  0  0  0
 19 20  1  6  0  0  0
 21 22  1  1  0  0  0
 21 20  1  0  0  0  0
 22 23  1  0  0  0  0
 25 26  2  0  0  0  0
 25 24  1  0  0  0  0
 27 35  1  6  0  0  0
 27 28  1  0  0  0  0
 27 25  1  0  0  0  0
 28 29  1  0  0  0  0
 30 27  1  0  0  0  0
 31 33  1  0  0  0  0
 31 30  1  0  0  0  0
 32 31  2  0  0  0  0
 34 33  1  0  0  0  0
 36 35  1  0  0  0  0
 37 36  1  0  0  0  0
 38 41  1  0  0  0  0
 38 40  1  0  0  0  0
 38 37  1  0  0  0  0
 39 38  1  0  0  0  0
 41 42  1  0  0  0  0
M  END
>  <minimizedAffinity>
-7.95759153

$$$$
