
 OpenBabel12271915033D

 32 35  0  0  1  0  0  0  0  0999 V2000
    6.8510   49.6980   38.5390 C   0  0  1  0  0  0  0  0  0  0  0  0
    5.8490   49.6710   37.4250 N   0  0  0  0  0  0  0  0  0  0  0  0
    5.3440   50.5620   37.3620 H   0  0  0  0  0  0  0  0  0  0  0  0
    6.3190   49.5290   36.5260 H   0  0  0  0  0  0  0  0  0  0  0  0
    5.1890   48.8870   37.5380 H   0  0  0  0  0  0  0  0  0  0  0  0
    6.2200   50.1200   39.8850 C   0  0  0  0  0  0  0  0  0  0  0  0
    6.6900   51.4420   40.3840 C   0  0  0  0  0  0  0  0  0  0  0  0
    7.0510   51.7670   41.7140 C   0  0  0  0  0  0  0  0  0  0  0  0
    7.0850   51.0520   42.9140 C   0  0  0  0  0  0  0  0  0  0  0  0
    7.5130   51.6750   44.0840 C   0  0  0  0  0  0  0  0  0  0  0  0
    7.8880   53.0000   44.0830 C   0  0  0  0  0  0  0  0  0  0  0  0
    7.8440   53.7370   42.9080 C   0  0  0  0  0  0  0  0  0  0  0  0
    7.4250   53.0960   41.7350 C   0  0  0  0  0  0  0  0  0  0  0  0
    7.2720   53.6010   40.4670 N   0  0  0  0  0  0  0  0  0  0  0  0
    7.4480   54.5530   40.1920 H   0  0  0  0  0  0  0  0  0  0  0  0
    6.8270   52.5980   39.6450 C   0  0  0  0  0  0  0  0  0  0  0  0
    7.5440   48.3370   38.6210 C   0  0  0  0  0  0  0  0  0  0  0  0
    6.9690   47.6690   39.7430 O   0  0  0  0  0  0  0  0  0  0  0  0
    7.7670   46.9960   40.6010 C   0  0  0  0  0  0  0  0  0  0  0  0
    7.9990   47.3490   41.9180 C   0  0  0  0  0  0  0  0  0  0  0  0
    8.8100   46.5400   42.7240 C   0  0  0  0  0  0  0  0  0  0  0  0
    9.3620   45.4150   42.1450 C   0  0  0  0  0  0  0  0  0  0  0  0
    9.1590   45.0740   40.8580 N   0  0  0  0  0  0  0  0  0  0  0  0
    8.3710   45.8610   40.1020 C   0  0  0  0  0  0  0  0  0  0  0  0
    9.0140   46.9330   44.1070 C   0  0  0  0  0  0  0  0  0  0  0  0
    9.0170   46.0930   45.1620 C   0  0  0  0  0  0  0  0  0  0  0  0
    9.2240   46.4890   46.5580 C   0  0  0  0  0  0  0  0  0  0  0  0
   10.4950   46.9080   46.9510 C   0  0  0  0  0  0  0  0  0  0  0  0
   10.7100   47.2860   48.2640 C   0  0  0  0  0  0  0  0  0  0  0  0
    9.7380   47.2710   49.1980 N   0  0  0  0  0  0  0  0  0  0  0  0
    8.5130   46.8650   48.8090 C   0  0  0  0  0  0  0  0  0  0  0  0
    8.2250   46.4750   47.5170 C   0  0  0  0  0  0  0  0  0  0  0  0
  1 17  1  1  0  0  0
  1  6  1  0  0  0  0
  2  5  1  0  0  0  0
  2  1  1  0  0  0  0
  3  2  1  0  0  0  0
  4  2  1  0  0  0  0
  6  7  1  0  0  0  0
  7  8  1  0  0  0  0
  8 13  2  0  0  0  0
  8  9  1  0  0  0  0
  9 10  2  0  0  0  0
 11 10  1  0  0  0  0
 12 11  2  0  0  0  0
 13 12  1  0  0  0  0
 14 13  1  0  0  0  0
 15 14  1  0  0  0  0
 16  7  2  0  0  0  0
 16 14  1  0  0  0  0
 17 18  1  0  0  0  0
 18 19  1  0  0  0  0
 19 20  1  0  0  0  0
 20 21  2  0  0  0  0
 21 25  1  0  0  0  0
 22 21  1  0  0  0  0
 23 22  2  0  0  0  0
 24 19  2  0  0  0  0
 24 23  1  0  0  0  0
 25 26  2  0  0  0  0
 26 27  1  0  0  0  0
 27 28  2  0  0  0  0
 27 32  1  0  0  0  0
 28 29  1  0  0  0  0
 29 30  2  0  0  0  0
 31 30  1  0  0  0  0
 32 31  2  0  0  0  0
M  END
>  <minimizedAffinity>
-9.2566576

$$$$

 OpenBabel12271915033D

 32 35  0  0  1  0  0  0  0  0999 V2000
    9.0310   44.3920   41.1850 C   0  0  1  0  0  0  0  0  0  0  0  0
    8.9250   43.0680   41.8790 N   0  0  0  0  0  0  0  0  0  0  0  0
    8.3290   42.4210   41.3490 H   0  0  0  0  0  0  0  0  0  0  0  0
    9.8480   42.6300   41.9540 H   0  0  0  0  0  0  0  0  0  0  0  0
    8.5740   43.1800   42.8410 H   0  0  0  0  0  0  0  0  0  0  0  0
    7.6470   44.9940   40.8560 C   0  0  0  0  0  0  0  0  0  0  0  0
    7.6950   46.1240   39.8870 C   0  0  0  0  0  0  0  0  0  0  0  0
    7.0920   47.3970   40.0380 C   0  0  0  0  0  0  0  0  0  0  0  0
    6.3110   47.9900   41.0330 C   0  0  0  0  0  0  0  0  0  0  0  0
    5.8700   49.3030   40.8830 C   0  0  0  0  0  0  0  0  0  0  0  0
    6.1780   50.0260   39.7510 C   0  0  0  0  0  0  0  0  0  0  0  0
    6.9340   49.4520   38.7400 C   0  0  0  0  0  0  0  0  0  0  0  0
    7.3830   48.1360   38.9090 C   0  0  0  0  0  0  0  0  0  0  0  0
    8.1160   47.3440   38.0590 N   0  0  0  0  0  0  0  0  0  0  0  0
    8.4490   47.6150   37.1490 H   0  0  0  0  0  0  0  0  0  0  0  0
    8.3070   46.1220   38.6520 C   0  0  0  0  0  0  0  0  0  0  0  0
    9.8900   45.3330   42.0320 C   0  0  0  0  0  0  0  0  0  0  0  0
    9.6630   44.9580   43.3890 O   0  0  0  0  0  0  0  0  0  0  0  0
    9.2510   45.8870   44.2800 C   0  0  0  0  0  0  0  0  0  0  0  0
    8.7140   47.1190   43.9570 C   0  0  0  0  0  0  0  0  0  0  0  0
    8.2770   47.9780   44.9740 C   0  0  0  0  0  0  0  0  0  0  0  0
    8.4240   47.5470   46.2760 C   0  0  0  0  0  0  0  0  0  0  0  0
    8.9660   46.3580   46.6030 N   0  0  0  0  0  0  0  0  0  0  0  0
    9.3730   45.5440   45.6100 C   0  0  0  0  0  0  0  0  0  0  0  0
    7.6990   49.2550   44.5930 C   0  0  0  0  0  0  0  0  0  0  0  0
    8.2110   50.0970   43.6740 C   0  0  0  0  0  0  0  0  0  0  0  0
    7.6280   51.3850   43.2890 C   0  0  0  0  0  0  0  0  0  0  0  0
    6.6930   51.9760   44.1400 C   0  0  0  0  0  0  0  0  0  0  0  0
    6.1320   53.1920   43.7950 C   0  0  0  0  0  0  0  0  0  0  0  0
    6.4480   53.8470   42.6590 N   0  0  0  0  0  0  0  0  0  0  0  0
    7.3520   53.2690   41.8420 C   0  0  0  0  0  0  0  0  0  0  0  0
    7.9520   52.0580   42.1230 C   0  0  0  0  0  0  0  0  0  0  0  0
  1  6  1  1  0  0  0
  1  2  1  0  0  0  0
  1 17  1  0  0  0  0
  2  4  1  0  0  0  0
  2  5  1  0  0  0  0
  3  2  1  0  0  0  0
  7  8  1  0  0  0  0
  7  6  1  0  0  0  0
  8  9  2  0  0  0  0
 10  9  1  0  0  0  0
 11 10  2  0  0  0  0
 12 13  2  0  0  0  0
 12 11  1  0  0  0  0
 13  8  1  0  0  0  0
 14 16  1  0  0  0  0
 14 13  1  0  0  0  0
 15 14  1  0  0  0  0
 16  7  2  0  0  0  0
 17 18  1  0  0  0  0
 18 19  1  0  0  0  0
 19 24  1  0  0  0  0
 20 19  2  0  0  0  0
 20 21  1  0  0  0  0
 21 22  2  0  0  0  0
 22 23  1  0  0  0  0
 24 23  2  0  0  0  0
 25 21  1  0  0  0  0
 26 25  2  0  0  0  0
 27 26  1  0  0  0  0
 27 28  2  0  0  0  0
 29 28  1  0  0  0  0
 30 29  2  0  0  0  0
 31 32  2  0  0  0  0
 31 30  1  0  0  0  0
 32 27  1  0  0  0  0
M  END
>  <minimizedAffinity>
-9.13714695

$$$$

 OpenBabel12271915033D

 32 35  0  0  1  0  0  0  0  0999 V2000
    7.8700   45.0300   40.3160 C   0  0  1  0  0  0  0  0  0  0  0  0
    7.0580   43.8650   39.8350 N   0  0  0  0  0  0  0  0  0  0  0  0
    6.6990   43.3150   40.6250 H   0  0  0  0  0  0  0  0  0  0  0  0
    6.2460   44.1920   39.3050 H   0  0  0  0  0  0  0  0  0  0  0  0
    7.6060   43.2700   39.1980 H   0  0  0  0  0  0  0  0  0  0  0  0
    8.9830   44.6040   41.2980 C   0  0  0  0  0  0  0  0  0  0  0  0
    8.7330   45.0110   42.7080 C   0  0  0  0  0  0  0  0  0  0  0  0
    8.8990   46.3060   43.2600 C   0  0  0  0  0  0  0  0  0  0  0  0
    9.3210   47.5340   42.7440 C   0  0  0  0  0  0  0  0  0  0  0  0
    9.3640   48.6560   43.5680 C   0  0  0  0  0  0  0  0  0  0  0  0
    9.0140   48.5710   44.8980 C   0  0  0  0  0  0  0  0  0  0  0  0
    8.6120   47.3580   45.4370 C   0  0  0  0  0  0  0  0  0  0  0  0
    8.5590   46.2390   44.5960 C   0  0  0  0  0  0  0  0  0  0  0  0
    8.2220   44.9400   44.8860 N   0  0  0  0  0  0  0  0  0  0  0  0
    7.9530   44.5940   45.7920 H   0  0  0  0  0  0  0  0  0  0  0  0
    8.3270   44.1930   43.7410 C   0  0  0  0  0  0  0  0  0  0  0  0
    8.4180   45.7900   39.1070 C   0  0  0  0  0  0  0  0  0  0  0  0
    7.2880   46.3790   38.4660 O   0  0  0  0  0  0  0  0  0  0  0  0
    6.9260   47.6430   38.7780 C   0  0  0  0  0  0  0  0  0  0  0  0
    7.0780   48.2330   40.0190 C   0  0  0  0  0  0  0  0  0  0  0  0
    6.7080   49.5710   40.2050 C   0  0  0  0  0  0  0  0  0  0  0  0
    6.1830   50.2420   39.1190 C   0  0  0  0  0  0  0  0  0  0  0  0
    6.0120   49.6700   37.9120 N   0  0  0  0  0  0  0  0  0  0  0  0
    6.3800   48.3860   37.7520 C   0  0  0  0  0  0  0  0  0  0  0  0
    6.9010   50.1620   41.5180 C   0  0  0  0  0  0  0  0  0  0  0  0
    7.1880   51.4580   41.7530 C   0  0  0  0  0  0  0  0  0  0  0  0
    7.3820   52.0550   43.0770 C   0  0  0  0  0  0  0  0  0  0  0  0
    8.0120   53.2960   43.1650 C   0  0  0  0  0  0  0  0  0  0  0  0
    8.2030   53.8750   44.4050 C   0  0  0  0  0  0  0  0  0  0  0  0
    7.8040   53.2930   45.5540 N   0  0  0  0  0  0  0  0  0  0  0  0
    7.1950   52.0930   45.4610 C   0  0  0  0  0  0  0  0  0  0  0  0
    6.9710   51.4570   44.2570 C   0  0  0  0  0  0  0  0  0  0  0  0
  1 17  1  6  0  0  0
  1  6  1  0  0  0  0
  2  1  1  0  0  0  0
  2  3  1  0  0  0  0
  4  2  1  0  0  0  0
  5  2  1  0  0  0  0
  6  7  1  0  0  0  0
  7  8  1  0  0  0  0
  7 16  2  0  0  0  0
  8 13  1  0  0  0  0
  9  8  2  0  0  0  0
  9 10  1  0  0  0  0
 10 11  2  0  0  0  0
 11 12  1  0  0  0  0
 13 14  1  0  0  0  0
 13 12  2  0  0  0  0
 14 15  1  0  0  0  0
 16 14  1  0  0  0  0
 18 19  1  0  0  0  0
 18 17  1  0  0  0  0
 19 20  2  0  0  0  0
 20 21  1  0  0  0  0
 21 25  1  0  0  0  0
 22 21  2  0  0  0  0
 23 22  1  0  0  0  0
 24 23  2  0  0  0  0
 24 19  1  0  0  0  0
 25 26  2  0  0  0  0
 26 27  1  0  0  0  0
 27 28  2  0  0  0  0
 27 32  1  0  0  0  0
 28 29  1  0  0  0  0
 29 30  2  0  0  0  0
 31 30  1  0  0  0  0
 32 31  2  0  0  0  0
M  END
>  <minimizedAffinity>
-9.11172295

$$$$

 OpenBabel12271915033D

 32 35  0  0  1  0  0  0  0  0999 V2000
    7.2070   48.0100   45.6040 C   0  0  1  0  0  0  0  0  0  0  0  0
    6.6500   48.4350   46.9290 N   0  0  0  0  0  0  0  0  0  0  0  0
    6.2930   49.3970   46.8870 H   0  0  0  0  0  0  0  0  0  0  0  0
    5.8630   47.8360   47.1940 H   0  0  0  0  0  0  0  0  0  0  0  0
    7.3540   48.3420   47.6750 H   0  0  0  0  0  0  0  0  0  0  0  0
    8.2520   49.0080   45.0590 C   0  0  0  0  0  0  0  0  0  0  0  0
    7.7820   49.7950   43.8860 C   0  0  0  0  0  0  0  0  0  0  0  0
    7.7420   51.2060   43.7710 C   0  0  0  0  0  0  0  0  0  0  0  0
    8.0810   52.2600   44.6230 C   0  0  0  0  0  0  0  0  0  0  0  0
    7.9300   53.5770   44.1960 C   0  0  0  0  0  0  0  0  0  0  0  0
    7.4310   53.8610   42.9440 C   0  0  0  0  0  0  0  0  0  0  0  0
    7.0690   52.8320   42.0870 C   0  0  0  0  0  0  0  0  0  0  0  0
    7.2370   51.5110   42.5230 C   0  0  0  0  0  0  0  0  0  0  0  0
    6.9370   50.3330   41.8840 N   0  0  0  0  0  0  0  0  0  0  0  0
    6.5320   50.2510   40.9670 H   0  0  0  0  0  0  0  0  0  0  0  0
    7.2680   49.2890   42.7100 C   0  0  0  0  0  0  0  0  0  0  0  0
    7.7650   46.5910   45.7290 C   0  0  0  0  0  0  0  0  0  0  0  0
    7.1750   45.8410   44.6700 O   0  0  0  0  0  0  0  0  0  0  0  0
    7.8790   45.6150   43.5380 C   0  0  0  0  0  0  0  0  0  0  0  0
    7.4690   45.9550   42.2620 C   0  0  0  0  0  0  0  0  0  0  0  0
    8.3130   45.7120   41.1710 C   0  0  0  0  0  0  0  0  0  0  0  0
    9.5300   45.1170   41.4290 C   0  0  0  0  0  0  0  0  0  0  0  0
    9.9300   44.7620   42.6650 N   0  0  0  0  0  0  0  0  0  0  0  0
    9.1080   45.0110   43.7010 C   0  0  0  0  0  0  0  0  0  0  0  0
    7.8550   46.1020   39.8480 C   0  0  0  0  0  0  0  0  0  0  0  0
    7.2240   47.2560   39.5530 C   0  0  0  0  0  0  0  0  0  0  0  0
    6.7640   47.6510   38.2190 C   0  0  0  0  0  0  0  0  0  0  0  0
    6.7670   46.6950   37.2020 C   0  0  0  0  0  0  0  0  0  0  0  0
    6.3360   47.0490   35.9370 C   0  0  0  0  0  0  0  0  0  0  0  0
    5.9050   48.2890   35.6300 N   0  0  0  0  0  0  0  0  0  0  0  0
    5.9050   49.2060   36.6180 C   0  0  0  0  0  0  0  0  0  0  0  0
    6.3200   48.9240   37.9040 C   0  0  0  0  0  0  0  0  0  0  0  0
  1  6  1  1  0  0  0
  1 17  1  0  0  0  0
  1  2  1  0  0  0  0
  2  4  1  0  0  0  0
  2  5  1  0  0  0  0
  3  2  1  0  0  0  0
  7  6  1  0  0  0  0
  8  7  1  0  0  0  0
  8  9  2  0  0  0  0
 10  9  1  0  0  0  0
 11 10  2  0  0  0  0
 12 13  2  0  0  0  0
 12 11  1  0  0  0  0
 13  8  1  0  0  0  0
 14 13  1  0  0  0  0
 14 16  1  0  0  0  0
 15 14  1  0  0  0  0
 16  7  2  0  0  0  0
 18 17  1  0  0  0  0
 19 24  1  0  0  0  0
 19 18  1  0  0  0  0
 20 19  2  0  0  0  0
 21 22  2  0  0  0  0
 21 20  1  0  0  0  0
 22 23  1  0  0  0  0
 23 24  2  0  0  0  0
 25 21  1  0  0  0  0
 26 25  2  0  0  0  0
 27 26  1  0  0  0  0
 28 27  2  0  0  0  0
 29 28  1  0  0  0  0
 30 29  2  0  0  0  0
 30 31  1  0  0  0  0
 31 32  2  0  0  0  0
 32 27  1  0  0  0  0
M  END
>  <minimizedAffinity>
-8.91407204

$$$$

 OpenBabel12271915033D

 32 35  0  0  1  0  0  0  0  0999 V2000
    9.2670   48.4410   45.1960 C   0  0  1  0  0  0  0  0  0  0  0  0
   10.1720   49.0050   44.1410 N   0  0  0  0  0  0  0  0  0  0  0  0
   10.0090   50.0110   44.0160 H   0  0  0  0  0  0  0  0  0  0  0  0
   11.1520   48.8930   44.4160 H   0  0  0  0  0  0  0  0  0  0  0  0
   10.0580   48.5050   43.2490 H   0  0  0  0  0  0  0  0  0  0  0  0
    7.7820   48.7740   44.9340 C   0  0  0  0  0  0  0  0  0  0  0  0
    7.5630   49.6880   43.7790 C   0  0  0  0  0  0  0  0  0  0  0  0
    7.6260   51.1030   43.7930 C   0  0  0  0  0  0  0  0  0  0  0  0
    7.8780   52.0540   44.7850 C   0  0  0  0  0  0  0  0  0  0  0  0
    7.8790   53.4100   44.4650 C   0  0  0  0  0  0  0  0  0  0  0  0
    7.6150   53.8340   43.1800 C   0  0  0  0  0  0  0  0  0  0  0  0
    7.3420   52.9090   42.1830 C   0  0  0  0  0  0  0  0  0  0  0  0
    7.3570   51.5480   42.5140 C   0  0  0  0  0  0  0  0  0  0  0  0
    7.1000   50.4520   41.7270 N   0  0  0  0  0  0  0  0  0  0  0  0
    6.8510   50.4770   40.7520 H   0  0  0  0  0  0  0  0  0  0  0  0
    7.2250   49.3220   42.4940 C   0  0  0  0  0  0  0  0  0  0  0  0
    9.5160   46.9370   45.3140 C   0  0  0  0  0  0  0  0  0  0  0  0
    8.8600   46.5210   46.5110 O   0  0  0  0  0  0  0  0  0  0  0  0
    9.3550   46.9000   47.7100 C   0  0  0  0  0  0  0  0  0  0  0  0
    8.6150   47.0420   48.8690 C   0  0  0  0  0  0  0  0  0  0  0  0
    9.2540   47.3920   50.0650 C   0  0  0  0  0  0  0  0  0  0  0  0
   10.6170   47.5990   50.0210 C   0  0  0  0  0  0  0  0  0  0  0  0
   11.3440   47.4840   48.8930 N   0  0  0  0  0  0  0  0  0  0  0  0
   10.7130   47.1390   47.7560 C   0  0  0  0  0  0  0  0  0  0  0  0
    8.4460   47.5120   51.2670 C   0  0  0  0  0  0  0  0  0  0  0  0
    7.6220   48.5410   51.5500 C   0  0  0  0  0  0  0  0  0  0  0  0
    6.8050   48.6610   52.7610 C   0  0  0  0  0  0  0  0  0  0  0  0
    5.5630   49.2880   52.6690 C   0  0  0  0  0  0  0  0  0  0  0  0
    4.7780   49.4110   53.8010 C   0  0  0  0  0  0  0  0  0  0  0  0
    5.1570   48.9470   55.0080 N   0  0  0  0  0  0  0  0  0  0  0  0
    6.3600   48.3420   55.0890 C   0  0  0  0  0  0  0  0  0  0  0  0
    7.1950   48.1840   54.0010 C   0  0  0  0  0  0  0  0  0  0  0  0
  1  6  1  6  0  0  0
  1 17  1  0  0  0  0
  2  4  1  0  0  0  0
  2  1  1  0  0  0  0
  3  2  1  0  0  0  0
  5  2  1  0  0  0  0
  7  8  1  0  0  0  0
  7  6  1  0  0  0  0
  8  9  2  0  0  0  0
 10  9  1  0  0  0  0
 11 10  2  0  0  0  0
 12 13  2  0  0  0  0
 12 11  1  0  0  0  0
 13  8  1  0  0  0  0
 14 16  1  0  0  0  0
 14 13  1  0  0  0  0
 15 14  1  0  0  0  0
 16  7  2  0  0  0  0
 17 18  1  0  0  0  0
 18 19  1  0  0  0  0
 19 24  2  0  0  0  0
 19 20  1  0  0  0  0
 20 21  2  0  0  0  0
 21 25  1  0  0  0  0
 22 21  1  0  0  0  0
 23 22  2  0  0  0  0
 24 23  1  0  0  0  0
 25 26  2  0  0  0  0
 26 27  1  0  0  0  0
 27 32  1  0  0  0  0
 28 27  2  0  0  0  0
 28 29  1  0  0  0  0
 29 30  2  0  0  0  0
 30 31  1  0  0  0  0
 32 31  2  0  0  0  0
M  END
>  <minimizedAffinity>
-8.90098286

$$$$

 OpenBabel12271915033D

 32 35  0  0  1  0  0  0  0  0999 V2000
    7.4590   47.9780   40.6110 C   0  0  1  0  0  0  0  0  0  0  0  0
    6.6990   47.2880   39.5170 N   0  0  0  0  0  0  0  0  0  0  0  0
    6.1500   47.9610   38.9690 H   0  0  0  0  0  0  0  0  0  0  0  0
    7.3460   46.8310   38.8680 H   0  0  0  0  0  0  0  0  0  0  0  0
    6.0930   46.5480   39.8970 H   0  0  0  0  0  0  0  0  0  0  0  0
    6.5460   48.8580   41.4930 C   0  0  0  0  0  0  0  0  0  0  0  0
    6.7850   50.3200   41.3380 C   0  0  0  0  0  0  0  0  0  0  0  0
    7.1710   51.2290   42.3530 C   0  0  0  0  0  0  0  0  0  0  0  0
    7.4320   51.1050   43.7200 C   0  0  0  0  0  0  0  0  0  0  0  0
    7.8140   52.2210   44.4610 C   0  0  0  0  0  0  0  0  0  0  0  0
    7.9220   53.4600   43.8670 C   0  0  0  0  0  0  0  0  0  0  0  0
    7.6490   53.6120   42.5150 C   0  0  0  0  0  0  0  0  0  0  0  0
    7.2780   52.4790   41.7790 C   0  0  0  0  0  0  0  0  0  0  0  0
    6.9380   52.3700   40.4530 N   0  0  0  0  0  0  0  0  0  0  0  0
    6.9050   53.1290   39.7920 H   0  0  0  0  0  0  0  0  0  0  0  0
    6.6390   51.0590   40.1830 C   0  0  0  0  0  0  0  0  0  0  0  0
    8.2240   46.9330   41.4230 C   0  0  0  0  0  0  0  0  0  0  0  0
    8.7400   47.6190   42.5620 O   0  0  0  0  0  0  0  0  0  0  0  0
    8.9250   46.9470   43.7200 C   0  0  0  0  0  0  0  0  0  0  0  0
    9.0340   47.5280   44.9700 C   0  0  0  0  0  0  0  0  0  0  0  0
    9.1750   46.7180   46.1050 C   0  0  0  0  0  0  0  0  0  0  0  0
    9.2160   45.3530   45.9110 C   0  0  0  0  0  0  0  0  0  0  0  0
    9.1320   44.7780   44.6950 N   0  0  0  0  0  0  0  0  0  0  0  0
    8.9900   45.5730   43.6180 C   0  0  0  0  0  0  0  0  0  0  0  0
    9.2660   47.3640   47.4030 C   0  0  0  0  0  0  0  0  0  0  0  0
    9.4810   46.7310   48.5730 C   0  0  0  0  0  0  0  0  0  0  0  0
    9.5740   47.3820   49.8830 C   0  0  0  0  0  0  0  0  0  0  0  0
   10.8380   47.6710   50.3970 C   0  0  0  0  0  0  0  0  0  0  0  0
   10.9460   48.2860   51.6300 C   0  0  0  0  0  0  0  0  0  0  0  0
    9.8750   48.6270   52.3740 N   0  0  0  0  0  0  0  0  0  0  0  0
    8.6570   48.3450   51.8700 C   0  0  0  0  0  0  0  0  0  0  0  0
    8.4730   47.7340   50.6460 C   0  0  0  0  0  0  0  0  0  0  0  0
  1 17  1  1  0  0  0
  1  6  1  0  0  0  0
  2  5  1  0  0  0  0
  2  1  1  0  0  0  0
  3  2  1  0  0  0  0
  4  2  1  0  0  0  0
  7  6  1  0  0  0  0
  7  8  1  0  0  0  0
  8  9  1  0  0  0  0
  9 10  2  0  0  0  0
 11 10  1  0  0  0  0
 12 11  2  0  0  0  0
 13  8  2  0  0  0  0
 13 12  1  0  0  0  0
 14 13  1  0  0  0  0
 15 14  1  0  0  0  0
 16 14  1  0  0  0  0
 16  7  2  0  0  0  0
 17 18  1  0  0  0  0
 18 19  1  0  0  0  0
 19 20  1  0  0  0  0
 20 21  2  0  0  0  0
 21 25  1  0  0  0  0
 22 21  1  0  0  0  0
 23 22  2  0  0  0  0
 24 19  2  0  0  0  0
 24 23  1  0  0  0  0
 25 26  2  0  0  0  0
 26 27  1  0  0  0  0
 27 28  2  0  0  0  0
 27 32  1  0  0  0  0
 28 29  1  0  0  0  0
 29 30  2  0  0  0  0
 31 30  1  0  0  0  0
 32 31  2  0  0  0  0
M  END
>  <minimizedAffinity>
-8.85149288

$$$$

 OpenBabel12271915033D

 32 35  0  0  1  0  0  0  0  0999 V2000
    7.2720   49.1270   38.9830 C   0  0  1  0  0  0  0  0  0  0  0  0
    7.5080   49.4850   37.5460 N   0  0  0  0  0  0  0  0  0  0  0  0
    7.8280   50.4570   37.4570 H   0  0  0  0  0  0  0  0  0  0  0  0
    8.2410   48.8910   37.1470 H   0  0  0  0  0  0  0  0  0  0  0  0
    6.6620   49.3280   36.9810 H   0  0  0  0  0  0  0  0  0  0  0  0
    6.3340   50.1290   39.6910 C   0  0  0  0  0  0  0  0  0  0  0  0
    6.7200   50.4270   41.0970 C   0  0  0  0  0  0  0  0  0  0  0  0
    7.0850   51.6890   41.6270 C   0  0  0  0  0  0  0  0  0  0  0  0
    7.2130   52.9700   41.0850 C   0  0  0  0  0  0  0  0  0  0  0  0
    7.5920   54.0360   41.8980 C   0  0  0  0  0  0  0  0  0  0  0  0
    7.8630   53.8430   43.2350 C   0  0  0  0  0  0  0  0  0  0  0  0
    7.7620   52.5770   43.7920 C   0  0  0  0  0  0  0  0  0  0  0  0
    7.3680   51.5160   42.9670 C   0  0  0  0  0  0  0  0  0  0  0  0
    7.2190   50.1830   43.2660 N   0  0  0  0  0  0  0  0  0  0  0  0
    7.3820   49.7630   44.1650 H   0  0  0  0  0  0  0  0  0  0  0  0
    6.8240   49.5210   42.1310 C   0  0  0  0  0  0  0  0  0  0  0  0
    6.7560   47.6890   39.0600 C   0  0  0  0  0  0  0  0  0  0  0  0
    7.9060   46.8510   38.9560 O   0  0  0  0  0  0  0  0  0  0  0  0
    8.2980   46.1180   40.0210 C   0  0  0  0  0  0  0  0  0  0  0  0
    8.5280   46.6150   41.2910 C   0  0  0  0  0  0  0  0  0  0  0  0
    8.8840   45.7420   42.3270 C   0  0  0  0  0  0  0  0  0  0  0  0
    9.0070   44.4030   42.0170 C   0  0  0  0  0  0  0  0  0  0  0  0
    8.8060   43.9120   40.7790 N   0  0  0  0  0  0  0  0  0  0  0  0
    8.4570   44.7660   39.7980 C   0  0  0  0  0  0  0  0  0  0  0  0
    9.0970   46.2990   43.6520 C   0  0  0  0  0  0  0  0  0  0  0  0
    8.8950   45.6440   44.8120 C   0  0  0  0  0  0  0  0  0  0  0  0
    9.1110   46.2050   46.1490 C   0  0  0  0  0  0  0  0  0  0  0  0
   10.3920   46.6360   46.4920 C   0  0  0  0  0  0  0  0  0  0  0  0
   10.6160   47.1690   47.7480 C   0  0  0  0  0  0  0  0  0  0  0  0
    9.6430   47.2960   48.6730 N   0  0  0  0  0  0  0  0  0  0  0  0
    8.4080   46.8760   48.3330 C   0  0  0  0  0  0  0  0  0  0  0  0
    8.1110   46.3360   47.0980 C   0  0  0  0  0  0  0  0  0  0  0  0
  1 17  1  6  0  0  0
  1  6  1  0  0  0  0
  2  1  1  0  0  0  0
  3  2  1  0  0  0  0
  4  2  1  0  0  0  0
  5  2  1  0  0  0  0
  6  7  1  0  0  0  0
  7  8  1  0  0  0  0
  7 16  2  0  0  0  0
  8 13  1  0  0  0  0
  9  8  2  0  0  0  0
  9 10  1  0  0  0  0
 10 11  2  0  0  0  0
 11 12  1  0  0  0  0
 13 14  1  0  0  0  0
 13 12  2  0  0  0  0
 14 15  1  0  0  0  0
 16 14  1  0  0  0  0
 18 17  1  0  0  0  0
 18 19  1  0  0  0  0
 19 20  1  0  0  0  0
 20 21  2  0  0  0  0
 21 25  1  0  0  0  0
 22 21  1  0  0  0  0
 23 22  2  0  0  0  0
 24 19  2  0  0  0  0
 24 23  1  0  0  0  0
 25 26  2  0  0  0  0
 26 27  1  0  0  0  0
 27 28  2  0  0  0  0
 27 32  1  0  0  0  0
 28 29  1  0  0  0  0
 29 30  2  0  0  0  0
 31 30  1  0  0  0  0
 32 31  2  0  0  0  0
M  END
>  <minimizedAffinity>
-8.72722149

$$$$

 OpenBabel12271915033D

 32 35  0  0  1  0  0  0  0  0999 V2000
    8.1010   43.4100   39.7590 C   0  0  1  0  0  0  0  0  0  0  0  0
    6.6060   43.5110   39.6980 N   0  0  0  0  0  0  0  0  0  0  0  0
    6.2780   43.5420   38.7260 H   0  0  0  0  0  0  0  0  0  0  0  0
    6.1750   42.6900   40.1330 H   0  0  0  0  0  0  0  0  0  0  0  0
    6.2680   44.3320   40.2210 H   0  0  0  0  0  0  0  0  0  0  0  0
    8.7980   44.5120   38.9320 C   0  0  0  0  0  0  0  0  0  0  0  0
    7.8910   45.2230   37.9890 C   0  0  0  0  0  0  0  0  0  0  0  0
    7.4470   46.5650   38.0870 C   0  0  0  0  0  0  0  0  0  0  0  0
    7.6620   47.5940   39.0070 C   0  0  0  0  0  0  0  0  0  0  0  0
    7.0720   48.8400   38.8080 C   0  0  0  0  0  0  0  0  0  0  0  0
    6.2580   49.0710   37.7210 C   0  0  0  0  0  0  0  0  0  0  0  0
    6.0130   48.0590   36.8050 C   0  0  0  0  0  0  0  0  0  0  0  0
    6.6230   46.8140   37.0090 C   0  0  0  0  0  0  0  0  0  0  0  0
    6.5240   45.6590   36.2720 N   0  0  0  0  0  0  0  0  0  0  0  0
    5.9690   45.5410   35.4400 H   0  0  0  0  0  0  0  0  0  0  0  0
    7.2940   44.6920   36.8650 C   0  0  0  0  0  0  0  0  0  0  0  0
    8.5410   43.4120   41.2240 C   0  0  0  0  0  0  0  0  0  0  0  0
    9.1000   44.7010   41.4660 O   0  0  0  0  0  0  0  0  0  0  0  0
    8.4940   45.5410   42.3340 C   0  0  0  0  0  0  0  0  0  0  0  0
    8.5900   46.9200   42.3090 C   0  0  0  0  0  0  0  0  0  0  0  0
    7.8710   47.6860   43.2360 C   0  0  0  0  0  0  0  0  0  0  0  0
    7.1000   47.0090   44.1580 C   0  0  0  0  0  0  0  0  0  0  0  0
    7.0150   45.6650   44.2030 N   0  0  0  0  0  0  0  0  0  0  0  0
    7.7080   44.9480   43.2990 C   0  0  0  0  0  0  0  0  0  0  0  0
    7.9820   49.1330   43.1650 C   0  0  0  0  0  0  0  0  0  0  0  0
    7.2810   49.9270   42.3320 C   0  0  0  0  0  0  0  0  0  0  0  0
    7.3920   51.3860   42.2620 C   0  0  0  0  0  0  0  0  0  0  0  0
    7.6230   52.0960   43.4400 C   0  0  0  0  0  0  0  0  0  0  0  0
    7.7310   53.4730   43.3940 C   0  0  0  0  0  0  0  0  0  0  0  0
    7.6240   54.1780   42.2500 N   0  0  0  0  0  0  0  0  0  0  0  0
    7.4010   53.4840   41.1150 C   0  0  0  0  0  0  0  0  0  0  0  0
    7.2830   52.1090   41.0860 C   0  0  0  0  0  0  0  0  0  0  0  0
  1  6  1  6  0  0  0
  1 17  1  0  0  0  0
  2  1  1  0  0  0  0
  2  4  1  0  0  0  0
  2  5  1  0  0  0  0
  3  2  1  0  0  0  0
  7  8  1  0  0  0  0
  7  6  1  0  0  0  0
  8  9  2  0  0  0  0
 10  9  1  0  0  0  0
 11 10  2  0  0  0  0
 12 13  2  0  0  0  0
 12 11  1  0  0  0  0
 13  8  1  0  0  0  0
 14 16  1  0  0  0  0
 14 13  1  0  0  0  0
 15 14  1  0  0  0  0
 16  7  2  0  0  0  0
 17 18  1  0  0  0  0
 18 19  1  0  0  0  0
 19 24  1  0  0  0  0
 20 19  2  0  0  0  0
 20 21  1  0  0  0  0
 21 22  2  0  0  0  0
 22 23  1  0  0  0  0
 24 23  2  0  0  0  0
 25 21  1  0  0  0  0
 26 25  2  0  0  0  0
 27 26  1  0  0  0  0
 27 28  2  0  0  0  0
 29 28  1  0  0  0  0
 30 29  2  0  0  0  0
 31 30  1  0  0  0  0
 32 31  2  0  0  0  0
 32 27  1  0  0  0  0
M  END
>  <minimizedAffinity>
-8.67253399

$$$$

 OpenBabel12271915033D

 32 35  0  0  1  0  0  0  0  0999 V2000
    9.2710   48.9980   44.8610 C   0  0  1  0  0  0  0  0  0  0  0  0
   10.0490   49.0210   43.5790 N   0  0  0  0  0  0  0  0  0  0  0  0
    9.9860   49.9400   43.1270 H   0  0  0  0  0  0  0  0  0  0  0  0
   11.0410   48.8450   43.7620 H   0  0  0  0  0  0  0  0  0  0  0  0
    9.7320   48.2790   42.9400 H   0  0  0  0  0  0  0  0  0  0  0  0
    7.8120   49.4670   44.6700 C   0  0  0  0  0  0  0  0  0  0  0  0
    7.6660   50.6240   43.7450 C   0  0  0  0  0  0  0  0  0  0  0  0
    7.1790   50.5920   42.4150 C   0  0  0  0  0  0  0  0  0  0  0  0
    6.7170   49.5770   41.5740 C   0  0  0  0  0  0  0  0  0  0  0  0
    6.2840   49.8820   40.2860 C   0  0  0  0  0  0  0  0  0  0  0  0
    6.3200   51.1770   39.8170 C   0  0  0  0  0  0  0  0  0  0  0  0
    6.7930   52.2000   40.6270 C   0  0  0  0  0  0  0  0  0  0  0  0
    7.2140   51.8820   41.9240 C   0  0  0  0  0  0  0  0  0  0  0  0
    7.7370   52.6950   42.8990 N   0  0  0  0  0  0  0  0  0  0  0  0
    7.9010   53.6840   42.8100 H   0  0  0  0  0  0  0  0  0  0  0  0
    8.0120   51.9330   44.0060 C   0  0  0  0  0  0  0  0  0  0  0  0
    9.3600   47.5990   45.4730 C   0  0  0  0  0  0  0  0  0  0  0  0
    8.2820   46.8540   44.9110 O   0  0  0  0  0  0  0  0  0  0  0  0
    8.4740   46.1580   43.7680 C   0  0  0  0  0  0  0  0  0  0  0  0
    7.8570   46.4250   42.5590 C   0  0  0  0  0  0  0  0  0  0  0  0
    8.1780   45.6600   41.4300 C   0  0  0  0  0  0  0  0  0  0  0  0
    9.1010   44.6470   41.5890 C   0  0  0  0  0  0  0  0  0  0  0  0
    9.6910   44.3660   42.7670 N   0  0  0  0  0  0  0  0  0  0  0  0
    9.3750   45.1170   43.8380 C   0  0  0  0  0  0  0  0  0  0  0  0
    7.5250   45.9830   40.1730 C   0  0  0  0  0  0  0  0  0  0  0  0
    8.1050   46.6200   39.1360 C   0  0  0  0  0  0  0  0  0  0  0  0
    7.4470   46.9450   37.8680 C   0  0  0  0  0  0  0  0  0  0  0  0
    6.8860   45.9080   37.1220 C   0  0  0  0  0  0  0  0  0  0  0  0
    6.2600   46.1940   35.9230 C   0  0  0  0  0  0  0  0  0  0  0  0
    6.1620   47.4450   35.4300 N   0  0  0  0  0  0  0  0  0  0  0  0
    6.7070   48.4420   36.1570 C   0  0  0  0  0  0  0  0  0  0  0  0
    7.3460   48.2300   37.3620 C   0  0  0  0  0  0  0  0  0  0  0  0
  1  6  1  6  0  0  0
  1 17  1  0  0  0  0
  2  4  1  0  0  0  0
  2  1  1  0  0  0  0
  3  2  1  0  0  0  0
  5  2  1  0  0  0  0
  7 16  2  0  0  0  0
  7  6  1  0  0  0  0
  8  7  1  0  0  0  0
  9  8  2  0  0  0  0
 10  9  1  0  0  0  0
 11 10  2  0  0  0  0
 11 12  1  0  0  0  0
 12 13  2  0  0  0  0
 13  8  1  0  0  0  0
 13 14  1  0  0  0  0
 14 16  1  0  0  0  0
 15 14  1  0  0  0  0
 18 17  1  0  0  0  0
 19 24  1  0  0  0  0
 19 18  1  0  0  0  0
 20 19  2  0  0  0  0
 21 22  2  0  0  0  0
 21 20  1  0  0  0  0
 22 23  1  0  0  0  0
 23 24  2  0  0  0  0
 25 21  1  0  0  0  0
 26 25  2  0  0  0  0
 27 26  1  0  0  0  0
 28 27  2  0  0  0  0
 29 28  1  0  0  0  0
 30 29  2  0  0  0  0
 30 31  1  0  0  0  0
 31 32  2  0  0  0  0
 32 27  1  0  0  0  0
M  END
>  <minimizedAffinity>
-8.52835274

$$$$
