
 OpenBabel12271915033D

 22 23  0  0  1  0  0  0  0  0999 V2000
    7.4410   46.9610   41.5550 C   0  0  2  0  0  0  0  0  0  0  0  0
    6.7160   47.2560   42.8950 C   0  0  2  0  0  0  0  0  0  0  0  0
    6.8260   48.6980   43.0460 O   0  0  0  0  0  0  0  0  0  0  0  0
    6.5630   49.2350   41.7460 C   0  0  2  0  0  0  0  0  0  0  0  0
    7.3090   48.2790   40.7950 C   0  0  0  0  0  0  0  0  0  0  0  0
    6.8660   50.6980   41.6330 C   0  0  0  0  0  0  0  0  0  0  0  0
    7.2700   51.4610   42.7320 C   0  0  0  0  0  0  0  0  0  0  0  0
    7.5840   52.8260   42.5880 C   0  0  0  0  0  0  0  0  0  0  0  0
    7.9650   53.6240   43.7640 C   0  0  0  0  0  0  0  0  0  0  0  0
    7.4830   53.3240   41.3010 C   0  0  0  0  0  0  0  0  0  0  0  0
    7.0880   52.6830   40.2290 N   0  0  0  0  0  0  0  0  0  0  0  0
    6.8160   51.3490   40.3890 C   0  0  0  0  0  0  0  0  0  0  0  0
    7.7560   54.6260   41.1290 O   0  0  0  0  0  0  0  0  0  0  0  0
    6.9780   54.8040   40.3730 H   0  0  0  0  0  0  0  0  0  0  0  0
    6.9700   45.8970   40.7290 O   0  0  0  0  0  0  0  0  0  0  0  0
    7.0460   45.0940   41.3560 H   0  0  0  0  0  0  0  0  0  0  0  0
    7.2170   46.5340   44.1290 C   0  0  0  0  0  0  0  0  0  0  0  0
    6.2190   46.7070   45.1170 O   0  0  0  0  0  0  0  0  0  0  0  0
    6.7650   47.2880   46.5380 P   0  0  0  0  0  0  0  0  0  0  0  0
    7.2900   48.7010   46.1530 O   0  0  0  0  0  0  0  0  0  0  0  0
    5.4650   47.2800   47.3280 O   0  0  0  0  0  0  0  0  0  0  0  0
    7.8340   46.3120   46.9690 O   0  0  0  0  0  0  0  0  0  0  0  0
  1 15  1  6  0  0  0
  1  2  1  0  0  0  0
  2  3  1  0  0  0  0
  2 17  1  1  0  0  0
  4  6  1  1  0  0  0
  4  3  1  0  0  0  0
  5  1  1  0  0  0  0
  5  4  1  0  0  0  0
  6  7  1  0  0  0  0
  8  7  2  0  0  0  0
  8  9  1  0  0  0  0
 10  8  1  0  0  0  0
 11 12  1  0  0  0  0
 11 10  2  0  0  0  0
 12  6  2  0  0  0  0
 13 10  1  0  0  0  0
 14 13  1  0  0  0  0
 15 16  1  0  0  0  0
 17 18  1  0  0  0  0
 18 19  1  0  0  0  0
 19 22  1  0  0  0  0
 19 21  1  0  0  0  0
 20 19  2  0  0  0  0
M  END
>  <minimizedAffinity>
-7.95552063

$$$$

 OpenBabel12271915033D

 22 23  0  0  1  0  0  0  0  0999 V2000
    7.7220   46.8310   43.8880 C   0  0  2  0  0  0  0  0  0  0  0  0
    8.3140   48.0240   44.6850 C   0  0  2  0  0  0  0  0  0  0  0  0
    8.2660   49.1340   43.7470 O   0  0  0  0  0  0  0  0  0  0  0  0
    6.9920   49.0270   43.1020 C   0  0  2  0  0  0  0  0  0  0  0  0
    6.8280   47.5150   42.8570 C   0  0  0  0  0  0  0  0  0  0  0  0
    6.8430   49.9390   41.9220 C   0  0  0  0  0  0  0  0  0  0  0  0
    7.2730   51.2680   41.9500 C   0  0  0  0  0  0  0  0  0  0  0  0
    7.1540   52.0900   40.8130 C   0  0  0  0  0  0  0  0  0  0  0  0
    7.5720   53.4990   40.8750 C   0  0  0  0  0  0  0  0  0  0  0  0
    6.6120   51.4800   39.6960 C   0  0  0  0  0  0  0  0  0  0  0  0
    6.1630   50.2540   39.5990 N   0  0  0  0  0  0  0  0  0  0  0  0
    6.3160   49.4650   40.7090 C   0  0  0  0  0  0  0  0  0  0  0  0
    6.4650   52.2390   38.6000 O   0  0  0  0  0  0  0  0  0  0  0  0
    5.5100   51.7960   38.2840 H   0  0  0  0  0  0  0  0  0  0  0  0
    6.9630   45.8410   44.5820 O   0  0  0  0  0  0  0  0  0  0  0  0
    7.6350   45.5050   45.2740 H   0  0  0  0  0  0  0  0  0  0  0  0
    9.7050   47.8530   45.2610 C   0  0  0  0  0  0  0  0  0  0  0  0
    9.7820   46.5120   45.7060 O   0  0  0  0  0  0  0  0  0  0  0  0
   10.2370   46.3390   47.2610 P   0  0  0  0  0  0  0  0  0  0  0  0
    9.2170   47.2380   48.0190 O   0  0  0  0  0  0  0  0  0  0  0  0
   10.0170   44.8430   47.4220 O   0  0  0  0  0  0  0  0  0  0  0  0
   11.6650   46.8300   47.3030 O   0  0  0  0  0  0  0  0  0  0  0  0
  1 15  1  1  0  0  0
  1  2  1  0  0  0  0
  2 17  1  6  0  0  0
  3  2  1  0  0  0  0
  4  6  1  6  0  0  0
  4  3  1  0  0  0  0
  5  4  1  0  0  0  0
  5  1  1  0  0  0  0
  6  7  1  0  0  0  0
  8  9  1  0  0  0  0
  8  7  2  0  0  0  0
 10  8  1  0  0  0  0
 11 10  2  0  0  0  0
 11 12  1  0  0  0  0
 12  6  2  0  0  0  0
 13 10  1  0  0  0  0
 14 13  1  0  0  0  0
 15 16  1  0  0  0  0
 17 18  1  0  0  0  0
 18 19  1  0  0  0  0
 19 22  2  0  0  0  0
 19 21  1  0  0  0  0
 19 20  1  0  0  0  0
M  END
>  <minimizedAffinity>
-7.82093287

$$$$

 OpenBabel12271915033D

 22 23  0  0  1  0  0  0  0  0999 V2000
    9.3290   47.1350   44.5700 C   0  0  2  0  0  0  0  0  0  0  0  0
    8.1030   47.3170   45.5040 C   0  0  2  0  0  0  0  0  0  0  0  0
    7.6600   48.6770   45.2440 O   0  0  0  0  0  0  0  0  0  0  0  0
    7.7380   48.8350   43.8240 C   0  0  2  0  0  0  0  0  0  0  0  0
    9.0570   48.1330   43.4470 C   0  0  0  0  0  0  0  0  0  0  0  0
    7.5530   50.2510   43.3700 C   0  0  0  0  0  0  0  0  0  0  0  0
    7.9530   51.3400   44.1500 C   0  0  0  0  0  0  0  0  0  0  0  0
    7.8010   52.6580   43.6800 C   0  0  0  0  0  0  0  0  0  0  0  0
    8.1850   53.7940   44.5330 C   0  0  0  0  0  0  0  0  0  0  0  0
    7.2600   52.7770   42.4120 C   0  0  0  0  0  0  0  0  0  0  0  0
    6.8390   51.8110   41.6340 N   0  0  0  0  0  0  0  0  0  0  0  0
    7.0230   50.5360   42.1000 C   0  0  0  0  0  0  0  0  0  0  0  0
    7.0820   54.0200   41.9400 O   0  0  0  0  0  0  0  0  0  0  0  0
    6.1340   53.8100   41.4260 H   0  0  0  0  0  0  0  0  0  0  0  0
    9.5840   45.8510   44.0010 O   0  0  0  0  0  0  0  0  0  0  0  0
    9.6840   45.2670   44.8330 H   0  0  0  0  0  0  0  0  0  0  0  0
    8.3180   47.0830   46.9850 C   0  0  0  0  0  0  0  0  0  0  0  0
    9.6890   47.3370   47.2270 O   0  0  0  0  0  0  0  0  0  0  0  0
   10.1860   46.9890   48.7390 P   0  0  0  0  0  0  0  0  0  0  0  0
   10.3890   45.4460   48.6870 O   0  0  0  0  0  0  0  0  0  0  0  0
   11.4700   47.8040   48.7750 O   0  0  0  0  0  0  0  0  0  0  0  0
    9.0580   47.4480   49.6330 O   0  0  0  0  0  0  0  0  0  0  0  0
  1 15  1  6  0  0  0
  1  2  1  0  0  0  0
  2 17  1  1  0  0  0
  3  2  1  0  0  0  0
  4  6  1  1  0  0  0
  4  3  1  0  0  0  0
  5  4  1  0  0  0  0
  5  1  1  0  0  0  0
  6  7  1  0  0  0  0
  8  7  2  0  0  0  0
  8  9  1  0  0  0  0
 10  8  1  0  0  0  0
 11 12  1  0  0  0  0
 11 10  2  0  0  0  0
 12  6  2  0  0  0  0
 13 10  1  0  0  0  0
 14 13  1  0  0  0  0
 15 16  1  0  0  0  0
 17 18  1  0  0  0  0
 18 19  1  0  0  0  0
 19 21  1  0  0  0  0
 19 22  1  0  0  0  0
 20 19  2  0  0  0  0
M  END
>  <minimizedAffinity>
-7.81719637

$$$$

 OpenBabel12271915033D

 22 23  0  0  1  0  0  0  0  0999 V2000
    7.6710   46.9990   44.1700 C   0  0  2  0  0  0  0  0  0  0  0  0
    8.4560   48.2070   44.7460 C   0  0  2  0  0  0  0  0  0  0  0  0
    8.4360   49.1860   43.6700 O   0  0  0  0  0  0  0  0  0  0  0  0
    7.1040   49.1460   43.1480 C   0  0  2  0  0  0  0  0  0  0  0  0
    6.7600   47.6440   43.1280 C   0  0  0  0  0  0  0  0  0  0  0  0
    6.9420   49.9100   41.8700 C   0  0  0  0  0  0  0  0  0  0  0  0
    6.6540   49.2770   40.6570 C   0  0  0  0  0  0  0  0  0  0  0  0
    6.4700   50.0250   39.4790 C   0  0  0  0  0  0  0  0  0  0  0  0
    6.2110   49.3400   38.2030 C   0  0  0  0  0  0  0  0  0  0  0  0
    6.5720   51.3970   39.6250 C   0  0  0  0  0  0  0  0  0  0  0  0
    6.8650   52.0600   40.7160 N   0  0  0  0  0  0  0  0  0  0  0  0
    7.0110   51.3130   41.8560 C   0  0  0  0  0  0  0  0  0  0  0  0
    6.4220   52.1400   38.5190 O   0  0  0  0  0  0  0  0  0  0  0  0
    7.1860   52.8860   38.7800 H   0  0  0  0  0  0  0  0  0  0  0  0
    6.8800   46.2010   45.0510 O   0  0  0  0  0  0  0  0  0  0  0  0
    7.5750   45.8810   45.7270 H   0  0  0  0  0  0  0  0  0  0  0  0
    9.8690   47.9510   45.2290 C   0  0  0  0  0  0  0  0  0  0  0  0
    9.8960   46.6050   45.6660 O   0  0  0  0  0  0  0  0  0  0  0  0
   10.0130   46.4190   47.2800 P   0  0  0  0  0  0  0  0  0  0  0  0
    8.6630   47.0000   47.7930 O   0  0  0  0  0  0  0  0  0  0  0  0
   10.1280   44.9040   47.3500 O   0  0  0  0  0  0  0  0  0  0  0  0
   11.2340   47.2180   47.6730 O   0  0  0  0  0  0  0  0  0  0  0  0
  1  2  1  0  0  0  0
  1 15  1  1  0  0  0
  2 17  1  6  0  0  0
  3  2  1  0  0  0  0
  4  6  1  6  0  0  0
  4  3  1  0  0  0  0
  5  4  1  0  0  0  0
  5  1  1  0  0  0  0
  7  6  1  0  0  0  0
  8 10  1  0  0  0  0
  8  7  2  0  0  0  0
  9  8  1  0  0  0  0
 10 11  2  0  0  0  0
 11 12  1  0  0  0  0
 12  6  2  0  0  0  0
 13 14  1  0  0  0  0
 13 10  1  0  0  0  0
 15 16  1  0  0  0  0
 17 18  1  0  0  0  0
 18 19  1  0  0  0  0
 19 21  2  0  0  0  0
 19 22  1  0  0  0  0
 19 20  1  0  0  0  0
M  END
>  <minimizedAffinity>
-7.62234163

$$$$

 OpenBabel12271915033D

 22 23  0  0  1  0  0  0  0  0999 V2000
    7.3040   47.8680   40.0680 C   0  0  2  0  0  0  0  0  0  0  0  0
    7.4290   47.1410   41.4330 C   0  0  2  0  0  0  0  0  0  0  0  0
    7.7990   48.1960   42.3630 O   0  0  0  0  0  0  0  0  0  0  0  0
    6.9760   49.3130   42.0120 C   0  0  2  0  0  0  0  0  0  0  0  0
    6.9790   49.3040   40.4710 C   0  0  0  0  0  0  0  0  0  0  0  0
    7.3730   50.5850   42.6970 C   0  0  0  0  0  0  0  0  0  0  0  0
    7.2600   51.8310   42.0750 C   0  0  0  0  0  0  0  0  0  0  0  0
    7.6070   53.0130   42.7570 C   0  0  0  0  0  0  0  0  0  0  0  0
    7.5240   54.3120   42.0720 C   0  0  0  0  0  0  0  0  0  0  0  0
    8.0330   52.8400   44.0620 C   0  0  0  0  0  0  0  0  0  0  0  0
    8.1910   51.7090   44.7030 N   0  0  0  0  0  0  0  0  0  0  0  0
    7.8200   50.5750   44.0290 C   0  0  0  0  0  0  0  0  0  0  0  0
    8.3910   53.9430   44.7360 O   0  0  0  0  0  0  0  0  0  0  0  0
    9.2290   53.4790   45.2750 H   0  0  0  0  0  0  0  0  0  0  0  0
    6.3320   47.4160   39.1260 O   0  0  0  0  0  0  0  0  0  0  0  0
    6.6110   46.4440   38.9840 H   0  0  0  0  0  0  0  0  0  0  0  0
    8.3940   45.9760   41.5130 C   0  0  0  0  0  0  0  0  0  0  0  0
    9.0620   46.1050   42.7540 O   0  0  0  0  0  0  0  0  0  0  0  0
    8.7600   44.9030   43.8140 P   0  0  0  0  0  0  0  0  0  0  0  0
    9.5270   43.6990   43.1940 O   0  0  0  0  0  0  0  0  0  0  0  0
    9.4000   45.5000   45.0580 O   0  0  0  0  0  0  0  0  0  0  0  0
    7.2560   44.7600   43.8180 O   0  0  0  0  0  0  0  0  0  0  0  0
  1 15  1  6  0  0  0
  1  5  1  0  0  0  0
  1  2  1  0  0  0  0
  2 17  1  6  0  0  0
  2  3  1  0  0  0  0
  4  3  1  0  0  0  0
  4  6  1  6  0  0  0
  5  4  1  0  0  0  0
  6 12  2  0  0  0  0
  7  6  1  0  0  0  0
  7  8  2  0  0  0  0
  8 10  1  0  0  0  0
  9  8  1  0  0  0  0
 10 11  2  0  0  0  0
 10 13  1  0  0  0  0
 12 11  1  0  0  0  0
 13 14  1  0  0  0  0
 16 15  1  0  0  0  0
 17 18  1  0  0  0  0
 18 19  1  0  0  0  0
 19 22  1  0  0  0  0
 19 21  1  0  0  0  0
 20 19  2  0  0  0  0
M  END
>  <minimizedAffinity>
-7.54786825

$$$$

 OpenBabel12271915033D

 22 23  0  0  1  0  0  0  0  0999 V2000
    7.9160   46.6670   44.1440 C   0  0  2  0  0  0  0  0  0  0  0  0
    8.5920   47.3130   45.3830 C   0  0  2  0  0  0  0  0  0  0  0  0
    8.7510   48.7090   45.0110 O   0  0  0  0  0  0  0  0  0  0  0  0
    7.5260   49.0700   44.3650 C   0  0  2  0  0  0  0  0  0  0  0  0
    7.1930   47.8440   43.4940 C   0  0  0  0  0  0  0  0  0  0  0  0
    7.5800   50.4050   43.6880 C   0  0  0  0  0  0  0  0  0  0  0  0
    7.2050   50.5770   42.3520 C   0  0  0  0  0  0  0  0  0  0  0  0
    7.2300   51.8510   41.7540 C   0  0  0  0  0  0  0  0  0  0  0  0
    6.8750   52.0070   40.3350 C   0  0  0  0  0  0  0  0  0  0  0  0
    7.6240   52.8880   42.5820 C   0  0  0  0  0  0  0  0  0  0  0  0
    8.0140   52.8030   43.8300 N   0  0  0  0  0  0  0  0  0  0  0  0
    7.9530   51.5590   44.3990 C   0  0  0  0  0  0  0  0  0  0  0  0
    7.6790   54.1130   42.0400 O   0  0  0  0  0  0  0  0  0  0  0  0
    8.5770   54.4370   42.5840 H   0  0  0  0  0  0  0  0  0  0  0  0
    6.9900   45.5980   44.3360 O   0  0  0  0  0  0  0  0  0  0  0  0
    7.5620   44.9080   44.8270 H   0  0  0  0  0  0  0  0  0  0  0  0
    9.9040   46.7160   45.8500 C   0  0  0  0  0  0  0  0  0  0  0  0
   10.4000   47.5900   46.8460 O   0  0  0  0  0  0  0  0  0  0  0  0
   10.4130   46.9640   48.3500 P   0  0  0  0  0  0  0  0  0  0  0  0
    9.0010   47.3360   48.8900 O   0  0  0  0  0  0  0  0  0  0  0  0
   10.6030   45.4940   48.0090 O   0  0  0  0  0  0  0  0  0  0  0  0
   11.5590   47.6600   49.0480 O   0  0  0  0  0  0  0  0  0  0  0  0
  1 15  1  1  0  0  0
  1  2  1  0  0  0  0
  2 17  1  6  0  0  0
  3  2  1  0  0  0  0
  4  6  1  6  0  0  0
  4  3  1  0  0  0  0
  5  1  1  0  0  0  0
  5  4  1  0  0  0  0
  6 12  2  0  0  0  0
  7  6  1  0  0  0  0
  8  7  2  0  0  0  0
  8 10  1  0  0  0  0
  9  8  1  0  0  0  0
 10 11  2  0  0  0  0
 11 12  1  0  0  0  0
 13 10  1  0  0  0  0
 13 14  1  0  0  0  0
 15 16  1  0  0  0  0
 17 18  1  0  0  0  0
 18 19  1  0  0  0  0
 19 20  1  0  0  0  0
 19 22  1  0  0  0  0
 21 19  2  0  0  0  0
M  END
>  <minimizedAffinity>
-7.52769756

$$$$

 OpenBabel12271915033D

 22 23  0  0  1  0  0  0  0  0999 V2000
    7.4170   45.8150   43.2250 C   0  0  2  0  0  0  0  0  0  0  0  0
    8.8460   46.1980   42.7570 C   0  0  2  0  0  0  0  0  0  0  0  0
    8.7850   47.6400   42.5800 O   0  0  0  0  0  0  0  0  0  0  0  0
    8.0480   48.1280   43.7060 C   0  0  2  0  0  0  0  0  0  0  0  0
    6.9120   47.1010   43.8750 C   0  0  0  0  0  0  0  0  0  0  0  0
    7.6650   49.5710   43.5880 C   0  0  0  0  0  0  0  0  0  0  0  0
    7.7390   50.4510   44.6710 C   0  0  0  0  0  0  0  0  0  0  0  0
    7.4070   51.8110   44.5200 C   0  0  0  0  0  0  0  0  0  0  0  0
    7.4480   52.7140   45.6810 C   0  0  0  0  0  0  0  0  0  0  0  0
    7.0350   52.1920   43.2430 C   0  0  0  0  0  0  0  0  0  0  0  0
    6.9150   51.4250   42.1880 N   0  0  0  0  0  0  0  0  0  0  0  0
    7.2710   50.1120   42.3520 C   0  0  0  0  0  0  0  0  0  0  0  0
    6.6930   53.4770   43.0670 O   0  0  0  0  0  0  0  0  0  0  0  0
    5.8820   53.2800   42.3520 H   0  0  0  0  0  0  0  0  0  0  0  0
    7.2530   44.7340   44.1420 O   0  0  0  0  0  0  0  0  0  0  0  0
    7.6770   43.9570   43.6310 H   0  0  0  0  0  0  0  0  0  0  0  0
    9.3750   45.5140   41.5120 C   0  0  0  0  0  0  0  0  0  0  0  0
    8.8630   44.1960   41.5420 O   0  0  0  0  0  0  0  0  0  0  0  0
    8.0950   43.7360   40.1800 P   0  0  0  0  0  0  0  0  0  0  0  0
    8.9960   42.5820   39.6500 O   0  0  0  0  0  0  0  0  0  0  0  0
    6.7690   43.2910   40.7790 O   0  0  0  0  0  0  0  0  0  0  0  0
    8.0750   44.9720   39.3120 O   0  0  0  0  0  0  0  0  0  0  0  0
  1  5  1  0  0  0  0
  1 15  1  1  0  0  0
  2 17  1  6  0  0  0
  2  1  1  0  0  0  0
  3  2  1  0  0  0  0
  3  4  1  0  0  0  0
  4  6  1  6  0  0  0
  4  5  1  0  0  0  0
  6  7  1  0  0  0  0
  8  7  2  0  0  0  0
  8  9  1  0  0  0  0
 10  8  1  0  0  0  0
 11 12  1  0  0  0  0
 11 10  2  0  0  0  0
 12  6  2  0  0  0  0
 13 10  1  0  0  0  0
 14 13  1  0  0  0  0
 16 15  1  0  0  0  0
 17 18  1  0  0  0  0
 19 21  1  0  0  0  0
 19 18  1  0  0  0  0
 20 19  1  0  0  0  0
 22 19  2  0  0  0  0
M  END
>  <minimizedAffinity>
-7.47177267

$$$$

 OpenBabel12271915033D

 22 23  0  0  1  0  0  0  0  0999 V2000
    7.4580   46.5710   44.7860 C   0  0  2  0  0  0  0  0  0  0  0  0
    8.2910   46.4860   43.4790 C   0  0  2  0  0  0  0  0  0  0  0  0
    8.1240   47.7950   42.8670 O   0  0  0  0  0  0  0  0  0  0  0  0
    8.2340   48.7310   43.9440 C   0  0  2  0  0  0  0  0  0  0  0  0
    7.4510   48.0670   45.0930 C   0  0  0  0  0  0  0  0  0  0  0  0
    7.8480   50.1270   43.5620 C   0  0  0  0  0  0  0  0  0  0  0  0
    8.1640   51.2310   44.3590 C   0  0  0  0  0  0  0  0  0  0  0  0
    7.8210   52.5350   43.9550 C   0  0  0  0  0  0  0  0  0  0  0  0
    8.1220   53.6810   44.8280 C   0  0  0  0  0  0  0  0  0  0  0  0
    7.1860   52.6290   42.7300 C   0  0  0  0  0  0  0  0  0  0  0  0
    6.8330   51.6440   41.9400 N   0  0  0  0  0  0  0  0  0  0  0  0
    7.2030   50.3870   42.3400 C   0  0  0  0  0  0  0  0  0  0  0  0
    6.8260   53.8540   42.3220 O   0  0  0  0  0  0  0  0  0  0  0  0
    5.8780   53.5460   41.8600 H   0  0  0  0  0  0  0  0  0  0  0  0
    7.9020   45.8590   45.9400 O   0  0  0  0  0  0  0  0  0  0  0  0
    7.9270   44.8970   45.5990 H   0  0  0  0  0  0  0  0  0  0  0  0
    7.9460   45.3770   42.5060 C   0  0  0  0  0  0  0  0  0  0  0  0
    7.1200   44.4750   43.2170 O   0  0  0  0  0  0  0  0  0  0  0  0
    7.7330   42.9730   43.3730 P   0  0  0  0  0  0  0  0  0  0  0  0
    8.6730   43.1120   44.6060 O   0  0  0  0  0  0  0  0  0  0  0  0
    6.4470   42.2030   43.6310 O   0  0  0  0  0  0  0  0  0  0  0  0
    8.4410   42.7070   42.0650 O   0  0  0  0  0  0  0  0  0  0  0  0
  1  5  1  0  0  0  0
  1 15  1  1  0  0  0
  2 17  1  6  0  0  0
  2  1  1  0  0  0  0
  3  2  1  0  0  0  0
  3  4  1  0  0  0  0
  4  6  1  6  0  0  0
  4  5  1  0  0  0  0
  6  7  1  0  0  0  0
  8  7  2  0  0  0  0
  8  9  1  0  0  0  0
 10  8  1  0  0  0  0
 11 12  1  0  0  0  0
 11 10  2  0  0  0  0
 12  6  2  0  0  0  0
 13 10  1  0  0  0  0
 14 13  1  0  0  0  0
 16 15  1  0  0  0  0
 17 18  1  0  0  0  0
 18 19  1  0  0  0  0
 19 21  1  0  0  0  0
 19 20  1  0  0  0  0
 22 19  2  0  0  0  0
M  END
>  <minimizedAffinity>
-7.33173275

$$$$

 OpenBabel12271915033D

 22 23  0  0  1  0  0  0  0  0999 V2000
    7.0810   46.3020   43.4030 C   0  0  2  0  0  0  0  0  0  0  0  0
    8.5620   46.5000   42.9840 C   0  0  2  0  0  0  0  0  0  0  0  0
    8.5090   47.5580   41.9870 O   0  0  0  0  0  0  0  0  0  0  0  0
    7.5860   48.5200   42.5080 C   0  0  2  0  0  0  0  0  0  0  0  0
    6.4540   47.6610   43.1030 C   0  0  0  0  0  0  0  0  0  0  0  0
    7.2040   49.5770   41.5170 C   0  0  0  0  0  0  0  0  0  0  0  0
    7.4020   50.9380   41.7670 C   0  0  0  0  0  0  0  0  0  0  0  0
    7.0680   51.9050   40.8010 C   0  0  0  0  0  0  0  0  0  0  0  0
    7.2420   53.3360   41.0990 C   0  0  0  0  0  0  0  0  0  0  0  0
    6.5630   51.4080   39.6130 C   0  0  0  0  0  0  0  0  0  0  0  0
    6.3240   50.1550   39.3150 N   0  0  0  0  0  0  0  0  0  0  0  0
    6.6840   49.2290   40.2580 C   0  0  0  0  0  0  0  0  0  0  0  0
    6.2140   52.3020   38.6770 O   0  0  0  0  0  0  0  0  0  0  0  0
    5.3290   51.7560   38.3230 H   0  0  0  0  0  0  0  0  0  0  0  0
    6.7840   45.9380   44.7510 O   0  0  0  0  0  0  0  0  0  0  0  0
    7.3000   45.0620   44.8520 H   0  0  0  0  0  0  0  0  0  0  0  0
    9.3030   45.2880   42.4580 C   0  0  0  0  0  0  0  0  0  0  0  0
    8.9260   44.2070   43.2890 O   0  0  0  0  0  0  0  0  0  0  0  0
    8.2810   42.9360   42.4970 P   0  0  0  0  0  0  0  0  0  0  0  0
    6.8300   42.8810   43.0590 O   0  0  0  0  0  0  0  0  0  0  0  0
    8.3970   43.4460   41.0690 O   0  0  0  0  0  0  0  0  0  0  0  0
    9.1510   41.7610   42.8780 O   0  0  0  0  0  0  0  0  0  0  0  0
  1 15  1  1  0  0  0
  2 17  1  6  0  0  0
  2  1  1  0  0  0  0
  3  4  1  0  0  0  0
  3  2  1  0  0  0  0
  4  6  1  6  0  0  0
  4  5  1  0  0  0  0
  5  1  1  0  0  0  0
  6  7  1  0  0  0  0
  8  9  1  0  0  0  0
  8  7  2  0  0  0  0
 10  8  1  0  0  0  0
 11 10  2  0  0  0  0
 11 12  1  0  0  0  0
 12  6  2  0  0  0  0
 13 10  1  0  0  0  0
 14 13  1  0  0  0  0
 15 16  1  0  0  0  0
 17 18  1  0  0  0  0
 19 22  1  0  0  0  0
 19 20  1  0  0  0  0
 19 18  1  0  0  0  0
 21 19  2  0  0  0  0
M  END
>  <minimizedAffinity>
-7.15343285

$$$$
