
 OpenBabel12271915013D

 22 23  0  0  1  0  0  0  0  0999 V2000
    9.2600   47.5490   44.5450 C   0  0  2  0  0  0  0  0  0  0  0  0
    8.0460   47.6890   45.4460 C   0  0  2  0  0  0  0  0  0  0  0  0
    7.6990   49.0590   45.1900 O   0  0  0  0  0  0  0  0  0  0  0  0
    7.5500   49.0080   43.7790 C   0  0  2  0  0  0  0  0  0  0  0  0
    8.7300   48.1850   43.2630 C   0  0  0  0  0  0  0  0  0  0  0  0
    7.4980   50.3450   43.1300 C   0  0  0  0  0  0  0  0  0  0  0  0
    7.8820   51.4410   43.9150 C   0  0  0  0  0  0  0  0  0  0  0  0
    7.7610   52.7200   43.4100 C   0  0  0  0  0  0  0  0  0  0  0  0
    8.1690   53.8580   44.2790 C   0  0  0  0  0  0  0  0  0  0  0  0
    7.2820   52.8690   42.1210 C   0  0  0  0  0  0  0  0  0  0  0  0
    6.9210   51.8250   41.3500 N   0  0  0  0  0  0  0  0  0  0  0  0
    7.0260   50.5790   41.8560 C   0  0  0  0  0  0  0  0  0  0  0  0
    7.1410   54.1250   41.5910 O   0  0  0  0  0  0  0  0  0  0  0  0
    8.0020   54.4580   41.2550 H   0  0  0  0  0  0  0  0  0  0  0  0
    9.6930   46.2370   44.2840 O   0  0  0  0  0  0  0  0  0  0  0  0
   10.4730   46.0470   44.8410 H   0  0  0  0  0  0  0  0  0  0  0  0
    8.2300   47.3750   46.9010 C   0  0  0  0  0  0  0  0  0  0  0  0
    9.6220   47.3880   47.1470 O   0  0  0  0  0  0  0  0  0  0  0  0
   10.1210   46.9810   48.6660 P   0  0  0  0  0  0  0  0  0  0  0  0
   11.4400   47.7550   48.8380 O   0  0  0  0  0  0  0  0  0  0  0  0
   10.3710   45.4490   48.6750 O   0  0  0  0  0  0  0  0  0  0  0  0
    9.0330   47.4500   49.6710 O   0  0  0  0  0  0  0  0  0  0  0  0
  1 15  1  6  0  0  0
  1  2  1  0  0  0  0
  2 17  1  1  0  0  0
  3  2  1  0  0  0  0
  4  6  1  6  0  0  0
  4  3  1  0  0  0  0
  5  4  1  0  0  0  0
  5  1  1  0  0  0  0
  6  7  1  0  0  0  0
  8  7  2  0  0  0  0
  8  9  1  0  0  0  0
 10  8  1  0  0  0  0
 11 12  1  0  0  0  0
 11 10  2  0  0  0  0
 12  6  2  0  0  0  0
 13 10  1  0  0  0  0
 14 13  1  0  0  0  0
 15 16  1  0  0  0  0
 17 18  1  0  0  0  0
 18 19  1  0  0  0  0
 19 21  2  0  0  0  0
 19 20  1  0  0  0  0
 19 22  1  0  0  0  0
M  END
>  <minimizedAffinity>
-7.87178373

$$$$

 OpenBabel12271915013D

 22 23  0  0  1  0  0  0  0  0999 V2000
    7.3940   47.2060   41.3920 C   0  0  2  0  0  0  0  0  0  0  0  0
    6.6850   47.4010   42.7200 C   0  0  2  0  0  0  0  0  0  0  0  0
    6.9770   48.7860   42.9610 O   0  0  0  0  0  0  0  0  0  0  0  0
    6.4510   49.3530   41.7700 C   0  0  2  0  0  0  0  0  0  0  0  0
    6.9100   48.4400   40.6340 C   0  0  0  0  0  0  0  0  0  0  0  0
    6.8690   50.7600   41.5370 C   0  0  0  0  0  0  0  0  0  0  0  0
    7.2710   51.4920   42.6630 C   0  0  0  0  0  0  0  0  0  0  0  0
    7.5760   52.8330   42.5350 C   0  0  0  0  0  0  0  0  0  0  0  0
    7.9870   53.5770   43.7560 C   0  0  0  0  0  0  0  0  0  0  0  0
    7.4940   53.4020   41.2760 C   0  0  0  0  0  0  0  0  0  0  0  0
    7.1220   52.7080   40.1840 N   0  0  0  0  0  0  0  0  0  0  0  0
    6.8100   51.4030   40.3180 C   0  0  0  0  0  0  0  0  0  0  0  0
    7.7810   54.7320   41.1140 O   0  0  0  0  0  0  0  0  0  0  0  0
    8.7520   54.8740   41.0590 H   0  0  0  0  0  0  0  0  0  0  0  0
    7.0620   46.0430   40.6730 O   0  0  0  0  0  0  0  0  0  0  0  0
    7.7740   45.3860   40.7950 H   0  0  0  0  0  0  0  0  0  0  0  0
    7.0780   46.4950   43.8480 C   0  0  0  0  0  0  0  0  0  0  0  0
    6.1870   46.7620   44.9120 O   0  0  0  0  0  0  0  0  0  0  0  0
    6.8490   47.2300   46.3490 P   0  0  0  0  0  0  0  0  0  0  0  0
    7.3440   48.6620   46.0750 O   0  0  0  0  0  0  0  0  0  0  0  0
    8.0400   46.2790   46.6400 O   0  0  0  0  0  0  0  0  0  0  0  0
    5.7330   47.1940   47.4290 O   0  0  0  0  0  0  0  0  0  0  0  0
  1 15  1  6  0  0  0
  1  2  1  0  0  0  0
  2  3  1  0  0  0  0
  2 17  1  1  0  0  0
  4  6  1  6  0  0  0
  4  3  1  0  0  0  0
  5  1  1  0  0  0  0
  5  4  1  0  0  0  0
  6  7  1  0  0  0  0
  8  7  2  0  0  0  0
  8  9  1  0  0  0  0
 10  8  1  0  0  0  0
 11 12  1  0  0  0  0
 11 10  2  0  0  0  0
 12  6  2  0  0  0  0
 13 10  1  0  0  0  0
 14 13  1  0  0  0  0
 15 16  1  0  0  0  0
 17 18  1  0  0  0  0
 18 19  1  0  0  0  0
 19 21  1  0  0  0  0
 19 22  1  0  0  0  0
 20 19  2  0  0  0  0
M  END
>  <minimizedAffinity>
-7.85767651

$$$$

 OpenBabel12271915013D

 22 23  0  0  1  0  0  0  0  0999 V2000
    8.9330   47.4750   43.4220 C   0  0  2  0  0  0  0  0  0  0  0  0
    7.8890   48.0010   44.3900 C   0  0  2  0  0  0  0  0  0  0  0  0
    7.4970   49.2030   43.7090 O   0  0  0  0  0  0  0  0  0  0  0  0
    7.1120   48.6550   42.4570 C   0  0  2  0  0  0  0  0  0  0  0  0
    8.1920   47.6340   42.0980 C   0  0  0  0  0  0  0  0  0  0  0  0
    6.9440   49.6670   41.3810 C   0  0  0  0  0  0  0  0  0  0  0  0
    7.2610   50.9920   41.7100 C   0  0  0  0  0  0  0  0  0  0  0  0
    7.0330   51.9990   40.7920 C   0  0  0  0  0  0  0  0  0  0  0  0
    7.3720   53.3940   41.1830 C   0  0  0  0  0  0  0  0  0  0  0  0
    6.5160   51.6490   39.5570 C   0  0  0  0  0  0  0  0  0  0  0  0
    6.2190   50.3780   39.2230 N   0  0  0  0  0  0  0  0  0  0  0  0
    6.4290   49.4030   40.1300 C   0  0  0  0  0  0  0  0  0  0  0  0
    6.2690   52.6220   38.6250 O   0  0  0  0  0  0  0  0  0  0  0  0
    7.0960   52.8680   38.1530 H   0  0  0  0  0  0  0  0  0  0  0  0
    9.3220   46.1350   43.5940 O   0  0  0  0  0  0  0  0  0  0  0  0
   10.1860   46.1140   44.0500 H   0  0  0  0  0  0  0  0  0  0  0  0
    8.3170   48.2240   45.8090 C   0  0  0  0  0  0  0  0  0  0  0  0
    9.6770   47.8440   45.8880 O   0  0  0  0  0  0  0  0  0  0  0  0
   10.0980   46.8060   47.0990 P   0  0  0  0  0  0  0  0  0  0  0  0
    9.6510   45.4300   46.5750 O   0  0  0  0  0  0  0  0  0  0  0  0
    9.2860   47.2110   48.3580 O   0  0  0  0  0  0  0  0  0  0  0  0
   11.6390   46.8880   47.2880 O   0  0  0  0  0  0  0  0  0  0  0  0
  1 15  1  1  0  0  0
  1  2  1  0  0  0  0
  2 17  1  1  0  0  0
  3  2  1  0  0  0  0
  4  6  1  6  0  0  0
  4  3  1  0  0  0  0
  5  4  1  0  0  0  0
  5  1  1  0  0  0  0
  6  7  1  0  0  0  0
  8  9  1  0  0  0  0
  8  7  2  0  0  0  0
 10  8  1  0  0  0  0
 11 10  2  0  0  0  0
 11 12  1  0  0  0  0
 12  6  2  0  0  0  0
 13 10  1  0  0  0  0
 14 13  1  0  0  0  0
 15 16  1  0  0  0  0
 17 18  1  0  0  0  0
 18 19  1  0  0  0  0
 19 22  1  0  0  0  0
 19 21  1  0  0  0  0
 20 19  2  0  0  0  0
M  END
>  <minimizedAffinity>
-7.85680771

$$$$

 OpenBabel12271915013D

 22 23  0  0  1  0  0  0  0  0999 V2000
    9.2580   47.8970   44.4550 C   0  0  2  0  0  0  0  0  0  0  0  0
    8.0670   47.9870   45.3920 C   0  0  2  0  0  0  0  0  0  0  0  0
    7.7150   49.3690   45.2190 O   0  0  0  0  0  0  0  0  0  0  0  0
    7.5310   49.3950   43.8120 C   0  0  2  0  0  0  0  0  0  0  0  0
    8.6980   48.6020   43.2220 C   0  0  0  0  0  0  0  0  0  0  0  0
    7.4640   50.7650   43.2380 C   0  0  0  0  0  0  0  0  0  0  0  0
    7.1060   50.8640   41.8870 C   0  0  0  0  0  0  0  0  0  0  0  0
    7.1220   52.0960   41.2630 C   0  0  0  0  0  0  0  0  0  0  0  0
    6.7460   52.1570   39.8240 C   0  0  0  0  0  0  0  0  0  0  0  0
    7.4720   53.2030   42.0150 C   0  0  0  0  0  0  0  0  0  0  0  0
    7.8060   53.1240   43.3180 N   0  0  0  0  0  0  0  0  0  0  0  0
    7.8040   51.9160   43.9170 C   0  0  0  0  0  0  0  0  0  0  0  0
    7.5070   54.4400   41.4270 O   0  0  0  0  0  0  0  0  0  0  0  0
    6.6040   54.8240   41.3740 H   0  0  0  0  0  0  0  0  0  0  0  0
    9.6840   46.6010   44.1120 O   0  0  0  0  0  0  0  0  0  0  0  0
   10.4770   46.3810   44.6380 H   0  0  0  0  0  0  0  0  0  0  0  0
    8.2870   47.5950   46.8220 C   0  0  0  0  0  0  0  0  0  0  0  0
    9.6790   47.4090   46.9840 O   0  0  0  0  0  0  0  0  0  0  0  0
   10.2090   46.9630   48.4810 P   0  0  0  0  0  0  0  0  0  0  0  0
    9.0540   47.3680   49.4150 O   0  0  0  0  0  0  0  0  0  0  0  0
   11.4850   47.7920   48.7850 O   0  0  0  0  0  0  0  0  0  0  0  0
   10.4410   45.4260   48.4710 O   0  0  0  0  0  0  0  0  0  0  0  0
  1 15  1  6  0  0  0
  1  2  1  0  0  0  0
  2 17  1  1  0  0  0
  3  2  1  0  0  0  0
  4  6  1  6  0  0  0
  4  3  1  0  0  0  0
  5  4  1  0  0  0  0
  5  1  1  0  0  0  0
  6 12  2  0  0  0  0
  7  6  1  0  0  0  0
  8  7  2  0  0  0  0
  8 10  1  0  0  0  0
  9  8  1  0  0  0  0
 10 11  2  0  0  0  0
 11 12  1  0  0  0  0
 13 10  1  0  0  0  0
 14 13  1  0  0  0  0
 15 16  1  0  0  0  0
 17 18  1  0  0  0  0
 18 19  1  0  0  0  0
 19 21  1  0  0  0  0
 19 20  1  0  0  0  0
 22 19  2  0  0  0  0
M  END
>  <minimizedAffinity>
-7.79698753

$$$$

 OpenBabel12271915013D

 22 23  0  0  1  0  0  0  0  0999 V2000
    7.4610   47.2500   41.2400 C   0  0  2  0  0  0  0  0  0  0  0  0
    7.1760   47.3550   42.7270 C   0  0  2  0  0  0  0  0  0  0  0  0
    7.5270   48.7280   42.9550 O   0  0  0  0  0  0  0  0  0  0  0  0
    6.6730   49.3540   42.0090 C   0  0  2  0  0  0  0  0  0  0  0  0
    6.7750   48.5170   40.7350 C   0  0  0  0  0  0  0  0  0  0  0  0
    7.0050   50.7800   41.7490 C   0  0  0  0  0  0  0  0  0  0  0  0
    7.3990   51.5460   42.8540 C   0  0  0  0  0  0  0  0  0  0  0  0
    7.6240   52.9000   42.7040 C   0  0  0  0  0  0  0  0  0  0  0  0
    8.0290   53.6810   43.9040 C   0  0  0  0  0  0  0  0  0  0  0  0
    7.4730   53.4490   41.4430 C   0  0  0  0  0  0  0  0  0  0  0  0
    7.1070   52.7230   40.3690 N   0  0  0  0  0  0  0  0  0  0  0  0
    6.8730   51.4050   40.5260 C   0  0  0  0  0  0  0  0  0  0  0  0
    7.6790   54.7910   41.2580 O   0  0  0  0  0  0  0  0  0  0  0  0
    8.6390   54.9860   41.1720 H   0  0  0  0  0  0  0  0  0  0  0  0
    6.9310   46.1260   40.5820 O   0  0  0  0  0  0  0  0  0  0  0  0
    7.6460   45.4750   40.4470 H   0  0  0  0  0  0  0  0  0  0  0  0
    7.8840   46.3920   43.6320 C   0  0  0  0  0  0  0  0  0  0  0  0
    7.0920   45.2230   43.6820 O   0  0  0  0  0  0  0  0  0  0  0  0
    7.8430   43.7900   43.3570 P   0  0  0  0  0  0  0  0  0  0  0  0
    8.9290   43.6910   44.4440 O   0  0  0  0  0  0  0  0  0  0  0  0
    8.4800   43.9120   41.9470 O   0  0  0  0  0  0  0  0  0  0  0  0
    6.7890   42.6550   43.4790 O   0  0  0  0  0  0  0  0  0  0  0  0
  1 15  1  6  0  0  0
  1  2  1  0  0  0  0
  2  3  1  0  0  0  0
  2 17  1  1  0  0  0
  4  6  1  6  0  0  0
  4  3  1  0  0  0  0
  5  1  1  0  0  0  0
  5  4  1  0  0  0  0
  6  7  1  0  0  0  0
  8  7  2  0  0  0  0
  8  9  1  0  0  0  0
 10  8  1  0  0  0  0
 11 12  1  0  0  0  0
 11 10  2  0  0  0  0
 12  6  2  0  0  0  0
 13 10  1  0  0  0  0
 14 13  1  0  0  0  0
 16 15  1  0  0  0  0
 17 18  1  0  0  0  0
 19 22  1  0  0  0  0
 19 18  1  0  0  0  0
 19 20  1  0  0  0  0
 21 19  2  0  0  0  0
M  END
>  <minimizedAffinity>
-7.66390991

$$$$

 OpenBabel12271915013D

 22 23  0  0  1  0  0  0  0  0999 V2000
    7.3070   48.0560   40.3900 C   0  0  2  0  0  0  0  0  0  0  0  0
    7.7010   47.1640   41.5540 C   0  0  2  0  0  0  0  0  0  0  0  0
    8.2190   48.1480   42.4620 O   0  0  0  0  0  0  0  0  0  0  0  0
    7.0900   49.0040   42.5570 C   0  0  2  0  0  0  0  0  0  0  0  0
    6.5680   49.1690   41.1300 C   0  0  0  0  0  0  0  0  0  0  0  0
    7.3840   50.3210   43.1820 C   0  0  0  0  0  0  0  0  0  0  0  0
    7.2080   51.4530   42.3740 C   0  0  0  0  0  0  0  0  0  0  0  0
    7.5580   52.6990   42.8560 C   0  0  0  0  0  0  0  0  0  0  0  0
    7.3670   53.8750   41.9650 C   0  0  0  0  0  0  0  0  0  0  0  0
    8.0530   52.7830   44.1460 C   0  0  0  0  0  0  0  0  0  0  0  0
    8.2150   51.7050   44.9380 N   0  0  0  0  0  0  0  0  0  0  0  0
    7.8870   50.4900   44.4550 C   0  0  0  0  0  0  0  0  0  0  0  0
    8.4180   54.0020   44.6540 O   0  0  0  0  0  0  0  0  0  0  0  0
    7.6310   54.4930   44.9790 H   0  0  0  0  0  0  0  0  0  0  0  0
    6.4620   47.4820   39.4240 O   0  0  0  0  0  0  0  0  0  0  0  0
    6.9980   47.2330   38.6460 H   0  0  0  0  0  0  0  0  0  0  0  0
    8.6550   46.0440   41.2680 C   0  0  0  0  0  0  0  0  0  0  0  0
    7.8960   44.8510   41.2730 O   0  0  0  0  0  0  0  0  0  0  0  0
    8.3220   43.6930   42.3670 P   0  0  0  0  0  0  0  0  0  0  0  0
    7.1050   43.6110   43.3070 O   0  0  0  0  0  0  0  0  0  0  0  0
    9.5740   44.2100   43.1240 O   0  0  0  0  0  0  0  0  0  0  0  0
    8.5540   42.3640   41.5960 O   0  0  0  0  0  0  0  0  0  0  0  0
  1 15  1  6  0  0  0
  1  5  1  0  0  0  0
  1  2  1  0  0  0  0
  2 17  1  6  0  0  0
  2  3  1  0  0  0  0
  3  4  1  0  0  0  0
  4  6  1  6  0  0  0
  5  4  1  0  0  0  0
  6 12  2  0  0  0  0
  7  8  2  0  0  0  0
  7  6  1  0  0  0  0
  8 10  1  0  0  0  0
  9  8  1  0  0  0  0
 10 13  1  0  0  0  0
 10 11  2  0  0  0  0
 12 11  1  0  0  0  0
 13 14  1  0  0  0  0
 16 15  1  0  0  0  0
 17 18  1  0  0  0  0
 18 19  1  0  0  0  0
 19 21  1  0  0  0  0
 19 20  1  0  0  0  0
 22 19  2  0  0  0  0
M  END
>  <minimizedAffinity>
-7.57179117

$$$$

 OpenBabel12271915013D

 22 23  0  0  1  0  0  0  0  0999 V2000
    7.1490   48.1610   39.8530 C   0  0  2  0  0  0  0  0  0  0  0  0
    7.5090   47.1450   40.9220 C   0  0  2  0  0  0  0  0  0  0  0  0
    8.0680   48.0150   41.9180 O   0  0  0  0  0  0  0  0  0  0  0  0
    6.9750   48.9020   42.1020 C   0  0  2  0  0  0  0  0  0  0  0  0
    6.4570   49.2240   40.7000 C   0  0  0  0  0  0  0  0  0  0  0  0
    7.3210   50.1400   42.8490 C   0  0  0  0  0  0  0  0  0  0  0  0
    7.0780   51.3570   42.1970 C   0  0  0  0  0  0  0  0  0  0  0  0
    7.4690   52.5410   42.7910 C   0  0  0  0  0  0  0  0  0  0  0  0
    7.2030   53.8110   42.0620 C   0  0  0  0  0  0  0  0  0  0  0  0
    8.0720   52.4780   44.0340 C   0  0  0  0  0  0  0  0  0  0  0  0
    8.3000   51.3170   44.6780 N   0  0  0  0  0  0  0  0  0  0  0  0
    7.9310   50.1630   44.0860 C   0  0  0  0  0  0  0  0  0  0  0  0
    8.4810   53.6330   44.6490 O   0  0  0  0  0  0  0  0  0  0  0  0
    7.7240   54.0750   45.0940 H   0  0  0  0  0  0  0  0  0  0  0  0
    6.2810   47.7170   38.8400 O   0  0  0  0  0  0  0  0  0  0  0  0
    6.8050   47.5230   38.0390 H   0  0  0  0  0  0  0  0  0  0  0  0
    8.4180   46.0210   40.5240 C   0  0  0  0  0  0  0  0  0  0  0  0
    8.5370   46.0720   39.1170 O   0  0  0  0  0  0  0  0  0  0  0  0
    8.0290   44.7500   38.2700 P   0  0  0  0  0  0  0  0  0  0  0  0
    7.4760   43.8100   39.3560 O   0  0  0  0  0  0  0  0  0  0  0  0
    9.2780   44.1330   37.5860 O   0  0  0  0  0  0  0  0  0  0  0  0
    6.9270   45.2090   37.2760 O   0  0  0  0  0  0  0  0  0  0  0  0
  1 15  1  6  0  0  0
  1  5  1  0  0  0  0
  1  2  1  0  0  0  0
  2 17  1  6  0  0  0
  2  3  1  0  0  0  0
  3  4  1  0  0  0  0
  4  6  1  6  0  0  0
  5  4  1  0  0  0  0
  6 12  2  0  0  0  0
  7  8  2  0  0  0  0
  7  6  1  0  0  0  0
  8 10  1  0  0  0  0
  9  8  1  0  0  0  0
 10 13  1  0  0  0  0
 10 11  2  0  0  0  0
 12 11  1  0  0  0  0
 13 14  1  0  0  0  0
 16 15  1  0  0  0  0
 18 17  1  0  0  0  0
 19 18  1  0  0  0  0
 19 20  1  0  0  0  0
 21 19  1  0  0  0  0
 22 19  2  0  0  0  0
M  END
>  <minimizedAffinity>
-7.52201605

$$$$

 OpenBabel12271915013D

 22 23  0  0  1  0  0  0  0  0999 V2000
    7.2460   46.3690   43.6670 C   0  0  2  0  0  0  0  0  0  0  0  0
    8.5620   46.4180   42.9130 C   0  0  2  0  0  0  0  0  0  0  0  0
    8.4810   47.7370   42.3520 O   0  0  0  0  0  0  0  0  0  0  0  0
    8.3010   48.4930   43.5400 C   0  0  2  0  0  0  0  0  0  0  0  0
    7.2790   47.7210   44.3750 C   0  0  0  0  0  0  0  0  0  0  0  0
    7.8590   49.8930   43.3030 C   0  0  0  0  0  0  0  0  0  0  0  0
    7.9570   50.7740   44.3880 C   0  0  0  0  0  0  0  0  0  0  0  0
    7.4710   52.0620   44.2700 C   0  0  0  0  0  0  0  0  0  0  0  0
    7.5820   52.9640   45.4480 C   0  0  0  0  0  0  0  0  0  0  0  0
    6.9230   52.4420   43.0580 C   0  0  0  0  0  0  0  0  0  0  0  0
    6.8340   51.6090   42.0030 N   0  0  0  0  0  0  0  0  0  0  0  0
    7.2950   50.3480   42.1300 C   0  0  0  0  0  0  0  0  0  0  0  0
    6.4230   53.7090   42.9070 O   0  0  0  0  0  0  0  0  0  0  0  0
    7.1470   54.3470   42.7210 H   0  0  0  0  0  0  0  0  0  0  0  0
    7.1090   45.3370   44.6140 O   0  0  0  0  0  0  0  0  0  0  0  0
    6.5570   44.6300   44.2290 H   0  0  0  0  0  0  0  0  0  0  0  0
    8.8130   45.3440   41.8970 C   0  0  0  0  0  0  0  0  0  0  0  0
    8.8000   44.1140   42.5940 O   0  0  0  0  0  0  0  0  0  0  0  0
    7.7310   42.9680   42.0780 P   0  0  0  0  0  0  0  0  0  0  0  0
    6.7090   42.8770   43.2250 O   0  0  0  0  0  0  0  0  0  0  0  0
    8.5170   41.6390   41.9280 O   0  0  0  0  0  0  0  0  0  0  0  0
    7.0850   43.4730   40.7570 O   0  0  0  0  0  0  0  0  0  0  0  0
  1  5  1  0  0  0  0
  1 15  1  1  0  0  0
  2 17  1  6  0  0  0
  2  1  1  0  0  0  0
  3  2  1  0  0  0  0
  3  4  1  0  0  0  0
  4  6  1  6  0  0  0
  4  5  1  0  0  0  0
  6  7  1  0  0  0  0
  8  7  2  0  0  0  0
  8  9  1  0  0  0  0
 10  8  1  0  0  0  0
 11 12  1  0  0  0  0
 11 10  2  0  0  0  0
 12  6  2  0  0  0  0
 13 10  1  0  0  0  0
 14 13  1  0  0  0  0
 16 15  1  0  0  0  0
 17 18  1  0  0  0  0
 19 18  1  0  0  0  0
 19 20  1  0  0  0  0
 21 19  1  0  0  0  0
 22 19  2  0  0  0  0
M  END
>  <minimizedAffinity>
-7.45522213

$$$$

 OpenBabel12271915013D

 22 23  0  0  1  0  0  0  0  0999 V2000
    7.4340   46.7760   44.0720 C   0  0  2  0  0  0  0  0  0  0  0  0
    8.2530   48.0170   44.3750 C   0  0  2  0  0  0  0  0  0  0  0  0
    8.4330   48.5300   43.0460 O   0  0  0  0  0  0  0  0  0  0  0  0
    7.0750   48.6400   42.6450 C   0  0  2  0  0  0  0  0  0  0  0  0
    6.3960   47.3530   43.1130 C   0  0  0  0  0  0  0  0  0  0  0  0
    6.8930   48.8480   41.1840 C   0  0  0  0  0  0  0  0  0  0  0  0
    6.6350   50.1590   40.7630 C   0  0  0  0  0  0  0  0  0  0  0  0
    6.3550   50.4090   39.4340 C   0  0  0  0  0  0  0  0  0  0  0  0
    6.0750   51.8130   39.0290 C   0  0  0  0  0  0  0  0  0  0  0  0
    6.3660   49.3410   38.5550 C   0  0  0  0  0  0  0  0  0  0  0  0
    6.6250   48.0780   38.9420 N   0  0  0  0  0  0  0  0  0  0  0  0
    6.8810   47.8380   40.2450 C   0  0  0  0  0  0  0  0  0  0  0  0
    6.0850   49.5510   37.2300 O   0  0  0  0  0  0  0  0  0  0  0  0
    6.8780   49.8840   36.7550 H   0  0  0  0  0  0  0  0  0  0  0  0
    6.7890   46.1730   45.1670 O   0  0  0  0  0  0  0  0  0  0  0  0
    7.3020   45.3880   45.4410 H   0  0  0  0  0  0  0  0  0  0  0  0
    9.5350   47.8280   45.1280 C   0  0  0  0  0  0  0  0  0  0  0  0
    9.1940   47.7440   46.4970 O   0  0  0  0  0  0  0  0  0  0  0  0
   10.0470   46.6760   47.4210 P   0  0  0  0  0  0  0  0  0  0  0  0
    9.6410   47.0320   48.8630 O   0  0  0  0  0  0  0  0  0  0  0  0
   11.5540   46.9600   47.1830 O   0  0  0  0  0  0  0  0  0  0  0  0
    9.6040   45.2390   47.0270 O   0  0  0  0  0  0  0  0  0  0  0  0
  1  2  1  0  0  0  0
  1 15  1  1  0  0  0
  2 17  1  6  0  0  0
  3  2  1  0  0  0  0
  4  6  1  6  0  0  0
  4  3  1  0  0  0  0
  4  5  1  0  0  0  0
  5  1  1  0  0  0  0
  7  6  1  0  0  0  0
  8  7  2  0  0  0  0
  9  8  1  0  0  0  0
 10 11  2  0  0  0  0
 10  8  1  0  0  0  0
 11 12  1  0  0  0  0
 12  6  2  0  0  0  0
 13 10  1  0  0  0  0
 14 13  1  0  0  0  0
 15 16  1  0  0  0  0
 17 18  1  0  0  0  0
 18 19  1  0  0  0  0
 19 20  1  0  0  0  0
 21 19  1  0  0  0  0
 22 19  2  0  0  0  0
M  END
>  <minimizedAffinity>
-7.31711721

$$$$
