
 OpenBabel12271915043D

 24 27  0  0  0  0  0  0  0  0999 V2000
    7.0570   49.1360   42.3680 N   0  0  0  0  0  0  0  0  0  0  0  0
    7.7620   49.3000   43.5910 C   0  0  0  0  0  0  0  0  0  0  0  0
    7.9850   48.2920   44.4210 N   0  0  0  0  0  0  0  0  0  0  0  0
    9.3620   47.7730   44.5810 C   0  0  0  0  0  0  0  0  0  0  0  0
    9.7590   47.7420   46.0460 C   0  0  0  0  0  0  0  0  0  0  0  0
    8.8100   46.8620   46.8820 N   0  0  0  0  0  0  0  0  0  0  0  0
    9.2140   45.9450   46.9560 H   0  0  0  0  0  0  0  0  0  0  0  0
    8.7180   47.3030   47.7890 H   0  0  0  0  0  0  0  0  0  0  0  0
    7.3890   46.7280   46.2830 C   0  0  0  0  0  0  0  0  0  0  0  0
    7.0240   47.9990   45.4940 C   0  0  0  0  0  0  0  0  0  0  0  0
    8.1360   50.5400   43.7200 N   0  0  0  0  0  0  0  0  0  0  0  0
    7.7090   51.2360   42.6220 C   0  0  0  0  0  0  0  0  0  0  0  0
    7.8620   52.6000   42.2850 C   0  0  0  0  0  0  0  0  0  0  0  0
    7.3040   53.0580   41.0840 C   0  0  0  0  0  0  0  0  0  0  0  0
    6.6260   52.1830   40.2570 C   0  0  0  0  0  0  0  0  0  0  0  0
    6.4700   50.8140   40.5870 C   0  0  0  0  0  0  0  0  0  0  0  0
    7.0260   50.3810   41.7680 C   0  0  0  0  0  0  0  0  0  0  0  0
    6.3740   47.9290   41.8610 C   0  0  0  0  0  0  0  0  0  0  0  0
    7.2340   47.1640   40.8530 C   0  0  0  0  0  0  0  0  0  0  0  0
    7.1630   47.3990   39.4670 C   0  0  0  0  0  0  0  0  0  0  0  0
    7.9310   46.6710   38.5630 C   0  0  0  0  0  0  0  0  0  0  0  0
    8.7890   45.6670   39.0190 C   0  0  0  0  0  0  0  0  0  0  0  0
    8.8710   45.4220   40.3920 C   0  0  0  0  0  0  0  0  0  0  0  0
    8.0910   46.1670   41.2910 C   0  0  0  0  0  0  0  0  0  0  0  0
  1  2  1  0  0  0  0
  2 11  2  0  0  0  0
  2  3  1  0  0  0  0
  3  4  1  0  0  0  0
  3 10  1  0  0  0  0
  4  5  1  0  0  0  0
  5  6  1  0  0  0  0
  6  7  1  0  0  0  0
  6  8  1  0  0  0  0
  9  6  1  0  0  0  0
 10  9  1  0  0  0  0
 12 11  2  0  0  0  0
 13 12  1  0  0  0  0
 14 13  1  0  0  0  0
 15 16  1  0  0  0  0
 15 14  2  0  0  0  0
 16 17  2  0  0  0  0
 17  1  1  0  0  0  0
 17 12  1  0  0  0  0
 18  1  1  0  0  0  0
 19 24  1  0  0  0  0
 19 18  1  0  0  0  0
 20 19  2  0  0  0  0
 21 22  2  0  0  0  0
 21 20  1  0  0  0  0
 22 23  1  0  0  0  0
 23 24  2  0  0  0  0
M  END
>  <minimizedAffinity>
-8.14297009

$$$$

 OpenBabel12271915043D

 24 27  0  0  0  0  0  0  0  0999 V2000
    6.9080   49.7710   42.4150 N   0  0  0  0  0  0  0  0  0  0  0  0
    7.6780   49.1670   43.4450 C   0  0  0  0  0  0  0  0  0  0  0  0
    7.7720   47.8530   43.5810 N   0  0  0  0  0  0  0  0  0  0  0  0
    9.0550   47.1790   43.2770 C   0  0  0  0  0  0  0  0  0  0  0  0
    9.5000   46.3160   44.4430 C   0  0  0  0  0  0  0  0  0  0  0  0
    8.4590   45.2360   44.7910 N   0  0  0  0  0  0  0  0  0  0  0  0
    8.7150   44.3860   44.3200 H   0  0  0  0  0  0  0  0  0  0  0  0
    8.4740   45.1220   45.7980 H   0  0  0  0  0  0  0  0  0  0  0  0
    7.0110   45.6070   44.3870 C   0  0  0  0  0  0  0  0  0  0  0  0
    6.8210   47.1340   44.4410 C   0  0  0  0  0  0  0  0  0  0  0  0
    8.2480   50.0880   44.1660 N   0  0  0  0  0  0  0  0  0  0  0  0
    7.8930   51.3110   43.6630 C   0  0  0  0  0  0  0  0  0  0  0  0
    8.2460   52.6120   44.0850 C   0  0  0  0  0  0  0  0  0  0  0  0
    7.7200   53.7070   43.3850 C   0  0  0  0  0  0  0  0  0  0  0  0
    6.8790   53.5010   42.3080 C   0  0  0  0  0  0  0  0  0  0  0  0
    6.5220   52.1990   41.8780 C   0  0  0  0  0  0  0  0  0  0  0  0
    7.0500   51.1360   42.5750 C   0  0  0  0  0  0  0  0  0  0  0  0
    6.0230   49.1160   41.4310 C   0  0  0  0  0  0  0  0  0  0  0  0
    6.7490   48.8140   40.1180 C   0  0  0  0  0  0  0  0  0  0  0  0
    7.4540   47.6150   39.9030 C   0  0  0  0  0  0  0  0  0  0  0  0
    8.1350   47.3730   38.7130 C   0  0  0  0  0  0  0  0  0  0  0  0
    8.1430   48.3340   37.7000 C   0  0  0  0  0  0  0  0  0  0  0  0
    7.4470   49.5290   37.8980 C   0  0  0  0  0  0  0  0  0  0  0  0
    6.7640   49.7570   39.1030 C   0  0  0  0  0  0  0  0  0  0  0  0
  1 17  1  0  0  0  0
  1  2  1  0  0  0  0
  2  3  1  0  0  0  0
  2 11  2  0  0  0  0
  3 10  1  0  0  0  0
  4  3  1  0  0  0  0
  4  5  1  0  0  0  0
  5  6  1  0  0  0  0
  6  8  1  0  0  0  0
  7  6  1  0  0  0  0
  9 10  1  0  0  0  0
  9  6  1  0  0  0  0
 12 13  1  0  0  0  0
 12 11  2  0  0  0  0
 14 13  1  0  0  0  0
 15 14  2  0  0  0  0
 16 15  1  0  0  0  0
 16 17  2  0  0  0  0
 17 12  1  0  0  0  0
 18  1  1  0  0  0  0
 19 18  1  0  0  0  0
 20 19  1  0  0  0  0
 21 20  2  0  0  0  0
 22 23  2  0  0  0  0
 22 21  1  0  0  0  0
 23 24  1  0  0  0  0
 24 19  2  0  0  0  0
M  END
>  <minimizedAffinity>
-7.82740593

$$$$

 OpenBabel12271915043D

 24 27  0  0  0  0  0  0  0  0999 V2000
    8.8340   47.7470   43.9060 N   0  0  0  0  0  0  0  0  0  0  0  0
    8.6650   46.8270   44.9750 C   0  0  0  0  0  0  0  0  0  0  0  0
    8.9570   47.1360   46.2290 N   0  0  0  0  0  0  0  0  0  0  0  0
    7.8630   47.3020   47.2120 C   0  0  0  0  0  0  0  0  0  0  0  0
    8.1010   46.4350   48.4350 C   0  0  0  0  0  0  0  0  0  0  0  0
    9.4310   46.7740   49.1320 N   0  0  0  0  0  0  0  0  0  0  0  0
    9.2420   47.4240   49.8740 H   0  0  0  0  0  0  0  0  0  0  0  0
    9.8110   45.9040   49.4880 H   0  0  0  0  0  0  0  0  0  0  0  0
   10.4930   47.3940   48.1910 C   0  0  0  0  0  0  0  0  0  0  0  0
   10.3030   46.8650   46.7570 C   0  0  0  0  0  0  0  0  0  0  0  0
    8.1840   45.7070   44.5190 N   0  0  0  0  0  0  0  0  0  0  0  0
    8.0170   45.8280   43.1660 C   0  0  0  0  0  0  0  0  0  0  0  0
    7.5280   44.9030   42.2160 C   0  0  0  0  0  0  0  0  0  0  0  0
    7.4740   45.2920   40.8710 C   0  0  0  0  0  0  0  0  0  0  0  0
    7.8910   46.5560   40.4980 C   0  0  0  0  0  0  0  0  0  0  0  0
    8.3810   47.4900   41.4440 C   0  0  0  0  0  0  0  0  0  0  0  0
    8.4240   47.0920   42.7610 C   0  0  0  0  0  0  0  0  0  0  0  0
    9.4360   49.0960   43.9470 C   0  0  0  0  0  0  0  0  0  0  0  0
    8.3750   50.1980   43.9480 C   0  0  0  0  0  0  0  0  0  0  0  0
    7.9100   50.8010   42.7650 C   0  0  0  0  0  0  0  0  0  0  0  0
    6.9680   51.8250   42.7890 C   0  0  0  0  0  0  0  0  0  0  0  0
    6.4670   52.2900   44.0070 C   0  0  0  0  0  0  0  0  0  0  0  0
    6.9180   51.7010   45.1910 C   0  0  0  0  0  0  0  0  0  0  0  0
    7.8680   50.6680   45.1490 C   0  0  0  0  0  0  0  0  0  0  0  0
  1 18  1  0  0  0  0
  1  2  1  0  0  0  0
  2  3  1  0  0  0  0
  3 10  1  0  0  0  0
  3  4  1  0  0  0  0
  4  5  1  0  0  0  0
  5  6  1  0  0  0  0
  6  8  1  0  0  0  0
  6  7  1  0  0  0  0
  9  6  1  0  0  0  0
 10  9  1  0  0  0  0
 11  2  2  0  0  0  0
 12 11  2  0  0  0  0
 13 12  1  0  0  0  0
 14 13  1  0  0  0  0
 15 14  2  0  0  0  0
 15 16  1  0  0  0  0
 16 17  2  0  0  0  0
 17 12  1  0  0  0  0
 17  1  1  0  0  0  0
 18 19  1  0  0  0  0
 19 24  2  0  0  0  0
 20 21  2  0  0  0  0
 20 19  1  0  0  0  0
 21 22  1  0  0  0  0
 22 23  2  0  0  0  0
 24 23  1  0  0  0  0
M  END
>  <minimizedAffinity>
-7.7477746

$$$$

 OpenBabel12271915043D

 24 27  0  0  0  0  0  0  0  0999 V2000
    7.1160   48.9700   42.7000 N   0  0  0  0  0  0  0  0  0  0  0  0
    7.7180   50.2240   42.9890 C   0  0  0  0  0  0  0  0  0  0  0  0
    7.3110   51.3520   42.4260 N   0  0  0  0  0  0  0  0  0  0  0  0
    6.6080   52.3630   43.2470 C   0  0  0  0  0  0  0  0  0  0  0  0
    7.2730   53.7210   43.1150 C   0  0  0  0  0  0  0  0  0  0  0  0
    7.2940   54.2140   41.6560 N   0  0  0  0  0  0  0  0  0  0  0  0
    6.4980   54.8090   41.5120 H   0  0  0  0  0  0  0  0  0  0  0  0
    8.1630   54.7170   41.5250 H   0  0  0  0  0  0  0  0  0  0  0  0
    7.2530   53.0740   40.6090 C   0  0  0  0  0  0  0  0  0  0  0  0
    7.9290   51.8110   41.1740 C   0  0  0  0  0  0  0  0  0  0  0  0
    8.6660   50.0650   43.8660 N   0  0  0  0  0  0  0  0  0  0  0  0
    8.7360   48.7370   44.1900 C   0  0  0  0  0  0  0  0  0  0  0  0
    9.5900   48.0560   45.0880 C   0  0  0  0  0  0  0  0  0  0  0  0
    9.4500   46.6680   45.2190 C   0  0  0  0  0  0  0  0  0  0  0  0
    8.4940   45.9950   44.4820 C   0  0  0  0  0  0  0  0  0  0  0  0
    7.6330   46.6710   43.5820 C   0  0  0  0  0  0  0  0  0  0  0  0
    7.7820   48.0340   43.4680 C   0  0  0  0  0  0  0  0  0  0  0  0
    6.0720   48.6650   41.7000 C   0  0  0  0  0  0  0  0  0  0  0  0
    6.6580   48.4800   40.2990 C   0  0  0  0  0  0  0  0  0  0  0  0
    7.5210   47.4170   39.9750 C   0  0  0  0  0  0  0  0  0  0  0  0
    8.0690   47.2840   38.7020 C   0  0  0  0  0  0  0  0  0  0  0  0
    7.7780   48.2240   37.7100 C   0  0  0  0  0  0  0  0  0  0  0  0
    6.9220   49.2850   38.0160 C   0  0  0  0  0  0  0  0  0  0  0  0
    6.3770   49.4040   39.3040 C   0  0  0  0  0  0  0  0  0  0  0  0
  1  2  1  0  0  0  0
  1 17  1  0  0  0  0
  2 11  2  0  0  0  0
  3  2  1  0  0  0  0
  3  4  1  0  0  0  0
  5  4  1  0  0  0  0
  6  5  1  0  0  0  0
  7  6  1  0  0  0  0
  8  6  1  0  0  0  0
  9 10  1  0  0  0  0
  9  6  1  0  0  0  0
 10  3  1  0  0  0  0
 11 12  2  0  0  0  0
 12 13  1  0  0  0  0
 13 14  1  0  0  0  0
 15 14  2  0  0  0  0
 16 15  1  0  0  0  0
 17 16  2  0  0  0  0
 17 12  1  0  0  0  0
 18  1  1  0  0  0  0
 19 18  1  0  0  0  0
 20 19  1  0  0  0  0
 21 20  2  0  0  0  0
 22 23  2  0  0  0  0
 22 21  1  0  0  0  0
 23 24  1  0  0  0  0
 24 19  2  0  0  0  0
M  END
>  <minimizedAffinity>
-7.74516726

$$$$

 OpenBabel12271915043D

 24 27  0  0  0  0  0  0  0  0999 V2000
    7.1930   49.4540   43.9760 N   0  0  0  0  0  0  0  0  0  0  0  0
    7.4090   49.3920   42.5730 C   0  0  0  0  0  0  0  0  0  0  0  0
    7.3110   48.2610   41.8900 N   0  0  0  0  0  0  0  0  0  0  0  0
    6.1800   48.0730   40.9530 C   0  0  0  0  0  0  0  0  0  0  0  0
    6.6820   47.6800   39.5760 C   0  0  0  0  0  0  0  0  0  0  0  0
    7.5020   46.3770   39.6110 N   0  0  0  0  0  0  0  0  0  0  0  0
    6.8900   45.6120   39.3890 H   0  0  0  0  0  0  0  0  0  0  0  0
    8.2420   46.4720   38.9240 H   0  0  0  0  0  0  0  0  0  0  0  0
    8.1710   46.0930   40.9780 C   0  0  0  0  0  0  0  0  0  0  0  0
    8.4980   47.4170   41.6930 C   0  0  0  0  0  0  0  0  0  0  0  0
    7.6850   50.5790   42.1180 N   0  0  0  0  0  0  0  0  0  0  0  0
    7.6650   51.4590   43.1660 C   0  0  0  0  0  0  0  0  0  0  0  0
    7.8960   52.8530   43.1970 C   0  0  0  0  0  0  0  0  0  0  0  0
    7.8230   53.5140   44.4300 C   0  0  0  0  0  0  0  0  0  0  0  0
    7.5290   52.8060   45.5800 C   0  0  0  0  0  0  0  0  0  0  0  0
    7.2960   51.4090   45.5570 C   0  0  0  0  0  0  0  0  0  0  0  0
    7.3680   50.7760   44.3370 C   0  0  0  0  0  0  0  0  0  0  0  0
    6.9500   48.3390   44.9140 C   0  0  0  0  0  0  0  0  0  0  0  0
    8.2080   47.9690   45.7030 C   0  0  0  0  0  0  0  0  0  0  0  0
    9.5000   48.0640   45.1530 C   0  0  0  0  0  0  0  0  0  0  0  0
   10.6300   47.6930   45.8760 C   0  0  0  0  0  0  0  0  0  0  0  0
   10.5010   47.1980   47.1760 C   0  0  0  0  0  0  0  0  0  0  0  0
    9.2250   47.0980   47.7370 C   0  0  0  0  0  0  0  0  0  0  0  0
    8.0960   47.4790   46.9940 C   0  0  0  0  0  0  0  0  0  0  0  0
  1 17  1  0  0  0  0
  1 18  1  0  0  0  0
  2  1  1  0  0  0  0
  3  2  1  0  0  0  0
  4  3  1  0  0  0  0
  5  6  1  0  0  0  0
  5  4  1  0  0  0  0
  6  9  1  0  0  0  0
  7  6  1  0  0  0  0
  8  6  1  0  0  0  0
  9 10  1  0  0  0  0
 10  3  1  0  0  0  0
 11  2  2  0  0  0  0
 11 12  2  0  0  0  0
 12 13  1  0  0  0  0
 12 17  1  0  0  0  0
 13 14  1  0  0  0  0
 14 15  2  0  0  0  0
 16 15  1  0  0  0  0
 17 16  2  0  0  0  0
 18 19  1  0  0  0  0
 19 24  1  0  0  0  0
 20 19  2  0  0  0  0
 20 21  1  0  0  0  0
 21 22  2  0  0  0  0
 22 23  1  0  0  0  0
 24 23  2  0  0  0  0
M  END
>  <minimizedAffinity>
-7.74444008

$$$$

 OpenBabel12271915043D

 24 27  0  0  0  0  0  0  0  0999 V2000
    6.7940   47.5620   41.2130 N   0  0  0  0  0  0  0  0  0  0  0  0
    7.6030   47.1450   42.3040 C   0  0  0  0  0  0  0  0  0  0  0  0
    7.4140   47.5910   43.5370 N   0  0  0  0  0  0  0  0  0  0  0  0
    6.8850   46.6730   44.5700 C   0  0  0  0  0  0  0  0  0  0  0  0
    7.7820   46.6640   45.7940 C   0  0  0  0  0  0  0  0  0  0  0  0
    7.9200   48.0650   46.4190 N   0  0  0  0  0  0  0  0  0  0  0  0
    7.2450   48.1490   47.1580 H   0  0  0  0  0  0  0  0  0  0  0  0
    8.8680   48.1430   46.7690 H   0  0  0  0  0  0  0  0  0  0  0  0
    7.6990   49.2230   45.4150 C   0  0  0  0  0  0  0  0  0  0  0  0
    8.1290   48.7890   44.0020 C   0  0  0  0  0  0  0  0  0  0  0  0
    8.4900   46.2870   41.8920 N   0  0  0  0  0  0  0  0  0  0  0  0
    8.3170   46.1000   40.5470 C   0  0  0  0  0  0  0  0  0  0  0  0
    9.0180   45.2750   39.6380 C   0  0  0  0  0  0  0  0  0  0  0  0
    8.6320   45.2870   38.2910 C   0  0  0  0  0  0  0  0  0  0  0  0
    7.5870   46.0900   37.8770 C   0  0  0  0  0  0  0  0  0  0  0  0
    6.8780   46.9180   38.7810 C   0  0  0  0  0  0  0  0  0  0  0  0
    7.2680   46.8920   40.1010 C   0  0  0  0  0  0  0  0  0  0  0  0
    5.7330   48.5900   41.2010 C   0  0  0  0  0  0  0  0  0  0  0  0
    6.2840   49.9780   40.8680 C   0  0  0  0  0  0  0  0  0  0  0  0
    6.8830   50.8060   41.8360 C   0  0  0  0  0  0  0  0  0  0  0  0
    7.3490   52.0790   41.5200 C   0  0  0  0  0  0  0  0  0  0  0  0
    7.2180   52.5720   40.2190 C   0  0  0  0  0  0  0  0  0  0  0  0
    6.6260   51.7620   39.2470 C   0  0  0  0  0  0  0  0  0  0  0  0
    6.1630   50.4800   39.5810 C   0  0  0  0  0  0  0  0  0  0  0  0
  1  2  1  0  0  0  0
  2  3  1  0  0  0  0
  3 10  1  0  0  0  0
  3  4  1  0  0  0  0
  4  5  1  0  0  0  0
  5  6  1  0  0  0  0
  6  8  1  0  0  0  0
  6  7  1  0  0  0  0
  9  6  1  0  0  0  0
 10  9  1  0  0  0  0
 11  2  2  0  0  0  0
 12 11  2  0  0  0  0
 13 12  1  0  0  0  0
 14 13  1  0  0  0  0
 15 14  2  0  0  0  0
 15 16  1  0  0  0  0
 16 17  2  0  0  0  0
 17 12  1  0  0  0  0
 17  1  1  0  0  0  0
 18  1  1  0  0  0  0
 19 18  1  0  0  0  0
 19 20  2  0  0  0  0
 21 20  1  0  0  0  0
 22 21  2  0  0  0  0
 23 24  2  0  0  0  0
 23 22  1  0  0  0  0
 24 19  1  0  0  0  0
M  END
>  <minimizedAffinity>
-7.66106749

$$$$

 OpenBabel12271915043D

 24 27  0  0  0  0  0  0  0  0999 V2000
    6.9080   47.2050   41.6670 N   0  0  0  0  0  0  0  0  0  0  0  0
    7.5550   46.0820   41.0860 C   0  0  0  0  0  0  0  0  0  0  0  0
    7.8820   45.0100   41.7910 N   0  0  0  0  0  0  0  0  0  0  0  0
    7.1520   43.7410   41.5690 C   0  0  0  0  0  0  0  0  0  0  0  0
    8.1190   42.6050   41.2870 C   0  0  0  0  0  0  0  0  0  0  0  0
    9.1130   42.3940   42.4440 N   0  0  0  0  0  0  0  0  0  0  0  0
    8.7510   41.6740   43.0440 H   0  0  0  0  0  0  0  0  0  0  0  0
    9.9980   42.1230   42.0300 H   0  0  0  0  0  0  0  0  0  0  0  0
    9.3660   43.6630   43.2930 C   0  0  0  0  0  0  0  0  0  0  0  0
    9.2070   44.9230   42.4230 C   0  0  0  0  0  0  0  0  0  0  0  0
    7.7340   46.2870   39.8130 N   0  0  0  0  0  0  0  0  0  0  0  0
    7.2290   47.5200   39.5000 C   0  0  0  0  0  0  0  0  0  0  0  0
    7.1780   48.2010   38.2630 C   0  0  0  0  0  0  0  0  0  0  0  0
    6.6070   49.4810   38.2280 C   0  0  0  0  0  0  0  0  0  0  0  0
    6.1080   50.0480   39.3860 C   0  0  0  0  0  0  0  0  0  0  0  0
    6.1550   49.3710   40.6290 C   0  0  0  0  0  0  0  0  0  0  0  0
    6.7160   48.1140   40.6440 C   0  0  0  0  0  0  0  0  0  0  0  0
    6.5970   47.4470   43.0910 C   0  0  0  0  0  0  0  0  0  0  0  0
    7.8450   47.8170   43.8950 C   0  0  0  0  0  0  0  0  0  0  0  0
    8.7680   48.7840   43.4550 C   0  0  0  0  0  0  0  0  0  0  0  0
    9.9140   49.0840   44.1860 C   0  0  0  0  0  0  0  0  0  0  0  0
   10.1810   48.4130   45.3820 C   0  0  0  0  0  0  0  0  0  0  0  0
    9.2730   47.4510   45.8330 C   0  0  0  0  0  0  0  0  0  0  0  0
    8.1210   47.1610   45.0840 C   0  0  0  0  0  0  0  0  0  0  0  0
  1 18  1  0  0  0  0
  2  1  1  0  0  0  0
  2  3  1  0  0  0  0
  3 10  1  0  0  0  0
  4  3  1  0  0  0  0
  5  4  1  0  0  0  0
  5  6  1  0  0  0  0
  6  7  1  0  0  0  0
  6  9  1  0  0  0  0
  8  6  1  0  0  0  0
 10  9  1  0  0  0  0
 11  2  2  0  0  0  0
 12 11  2  0  0  0  0
 12 17  1  0  0  0  0
 13 12  1  0  0  0  0
 14 13  1  0  0  0  0
 14 15  2  0  0  0  0
 15 16  1  0  0  0  0
 16 17  2  0  0  0  0
 17  1  1  0  0  0  0
 18 19  1  0  0  0  0
 19 24  1  0  0  0  0
 20 19  2  0  0  0  0
 20 21  1  0  0  0  0
 21 22  2  0  0  0  0
 22 23  1  0  0  0  0
 24 23  2  0  0  0  0
M  END
>  <minimizedAffinity>
-7.42850256

$$$$

 OpenBabel12271915043D

 24 27  0  0  0  0  0  0  0  0999 V2000
    8.3260   48.5780   43.0890 N   0  0  0  0  0  0  0  0  0  0  0  0
    7.9770   47.4420   42.3110 C   0  0  0  0  0  0  0  0  0  0  0  0
    8.3910   46.2210   42.6140 N   0  0  0  0  0  0  0  0  0  0  0  0
    7.4170   45.2250   43.1160 C   0  0  0  0  0  0  0  0  0  0  0  0
    7.4800   43.9500   42.2960 C   0  0  0  0  0  0  0  0  0  0  0  0
    8.8820   43.3120   42.3280 N   0  0  0  0  0  0  0  0  0  0  0  0
    8.8950   42.6150   43.0500 H   0  0  0  0  0  0  0  0  0  0  0  0
    9.0440   42.9050   41.4140 H   0  0  0  0  0  0  0  0  0  0  0  0
   10.0240   44.3220   42.5960 C   0  0  0  0  0  0  0  0  0  0  0  0
    9.6460   45.7090   42.0440 C   0  0  0  0  0  0  0  0  0  0  0  0
    7.2100   47.8040   41.3240 N   0  0  0  0  0  0  0  0  0  0  0  0
    7.0210   49.1580   41.3990 C   0  0  0  0  0  0  0  0  0  0  0  0
    6.2740   50.0260   40.5700 C   0  0  0  0  0  0  0  0  0  0  0  0
    6.2620   51.3930   40.8750 C   0  0  0  0  0  0  0  0  0  0  0  0
    6.9680   51.8670   41.9650 C   0  0  0  0  0  0  0  0  0  0  0  0
    7.7170   51.0030   42.8010 C   0  0  0  0  0  0  0  0  0  0  0  0
    7.7150   49.6630   42.4890 C   0  0  0  0  0  0  0  0  0  0  0  0
    9.2500   48.6500   44.2400 C   0  0  0  0  0  0  0  0  0  0  0  0
    8.6380   48.0470   45.5060 C   0  0  0  0  0  0  0  0  0  0  0  0
    7.2740   48.1800   45.8230 C   0  0  0  0  0  0  0  0  0  0  0  0
    6.7420   47.6510   46.9960 C   0  0  0  0  0  0  0  0  0  0  0  0
    7.5680   46.9800   47.9010 C   0  0  0  0  0  0  0  0  0  0  0  0
    8.9250   46.8390   47.6000 C   0  0  0  0  0  0  0  0  0  0  0  0
    9.4450   47.3770   46.4120 C   0  0  0  0  0  0  0  0  0  0  0  0
  1 18  1  0  0  0  0
  2  3  1  0  0  0  0
  2  1  1  0  0  0  0
  3  4  1  0  0  0  0
  5  6  1  0  0  0  0
  5  4  1  0  0  0  0
  6  9  1  0  0  0  0
  6  7  1  0  0  0  0
  8  6  1  0  0  0  0
 10  9  1  0  0  0  0
 10  3  1  0  0  0  0
 11 12  2  0  0  0  0
 11  2  2  0  0  0  0
 12 17  1  0  0  0  0
 13 14  1  0  0  0  0
 13 12  1  0  0  0  0
 14 15  2  0  0  0  0
 15 16  1  0  0  0  0
 17 16  2  0  0  0  0
 17  1  1  0  0  0  0
 18 19  1  0  0  0  0
 19 20  2  0  0  0  0
 19 24  1  0  0  0  0
 20 21  1  0  0  0  0
 21 22  2  0  0  0  0
 23 22  1  0  0  0  0
 24 23  2  0  0  0  0
M  END
>  <minimizedAffinity>
-7.42088795

$$$$

 OpenBabel12271915043D

 24 27  0  0  0  0  0  0  0  0999 V2000
    6.8590   47.2440   40.9800 N   0  0  0  0  0  0  0  0  0  0  0  0
    7.7130   46.1360   40.7340 C   0  0  0  0  0  0  0  0  0  0  0  0
    7.9870   45.2320   41.6630 N   0  0  0  0  0  0  0  0  0  0  0  0
    7.4390   43.8630   41.5300 C   0  0  0  0  0  0  0  0  0  0  0  0
    8.5440   42.8280   41.6350 C   0  0  0  0  0  0  0  0  0  0  0  0
    9.2950   42.9200   42.9770 N   0  0  0  0  0  0  0  0  0  0  0  0
    8.8850   42.2590   43.6140 H   0  0  0  0  0  0  0  0  0  0  0  0
   10.2670   42.7030   42.7900 H   0  0  0  0  0  0  0  0  0  0  0  0
    9.2480   44.3250   43.6270 C   0  0  0  0  0  0  0  0  0  0  0  0
    9.1550   45.4090   42.5380 C   0  0  0  0  0  0  0  0  0  0  0  0
    8.1300   46.1670   39.5020 N   0  0  0  0  0  0  0  0  0  0  0  0
    7.5890   47.2660   38.8910 C   0  0  0  0  0  0  0  0  0  0  0  0
    7.7300   47.7410   37.5670 C   0  0  0  0  0  0  0  0  0  0  0  0
    7.0610   48.9180   37.2060 C   0  0  0  0  0  0  0  0  0  0  0  0
    6.2840   49.5870   38.1330 C   0  0  0  0  0  0  0  0  0  0  0  0
    6.1370   49.1160   39.4610 C   0  0  0  0  0  0  0  0  0  0  0  0
    6.7970   47.9570   39.7980 C   0  0  0  0  0  0  0  0  0  0  0  0
    6.2400   47.6560   42.2570 C   0  0  0  0  0  0  0  0  0  0  0  0
    7.0870   48.6940   42.9950 C   0  0  0  0  0  0  0  0  0  0  0  0
    7.8880   48.3650   44.1050 C   0  0  0  0  0  0  0  0  0  0  0  0
    8.6270   49.3310   44.7830 C   0  0  0  0  0  0  0  0  0  0  0  0
    8.5780   50.6660   44.3780 C   0  0  0  0  0  0  0  0  0  0  0  0
    7.7880   51.0090   43.2780 C   0  0  0  0  0  0  0  0  0  0  0  0
    7.0490   50.0240   42.6040 C   0  0  0  0  0  0  0  0  0  0  0  0
  1 18  1  0  0  0  0
  2  1  1  0  0  0  0
  2  3  1  0  0  0  0
  3 10  1  0  0  0  0
  4  5  1  0  0  0  0
  4  3  1  0  0  0  0
  5  6  1  0  0  0  0
  6  7  1  0  0  0  0
  6  9  1  0  0  0  0
  8  6  1  0  0  0  0
 10  9  1  0  0  0  0
 11  2  2  0  0  0  0
 12 11  2  0  0  0  0
 12 17  1  0  0  0  0
 13 12  1  0  0  0  0
 14 13  1  0  0  0  0
 14 15  2  0  0  0  0
 15 16  1  0  0  0  0
 16 17  2  0  0  0  0
 17  1  1  0  0  0  0
 18 19  1  0  0  0  0
 19 20  1  0  0  0  0
 20 21  2  0  0  0  0
 22 21  1  0  0  0  0
 23 22  2  0  0  0  0
 24 19  2  0  0  0  0
 24 23  1  0  0  0  0
M  END
>  <minimizedAffinity>
-7.22327805

$$$$
