
 OpenBabel12271915033D

 24 27  0  0  0  0  0  0  0  0999 V2000
    7.4630   48.8210   42.9290 N   0  0  0  0  0  0  0  0  0  0  0  0
    7.8340   50.0500   43.4330 C   0  0  0  0  0  0  0  0  0  0  0  0
    7.1560   51.2330   43.1850 N   0  0  0  0  0  0  0  0  0  0  0  0
    6.7450   51.9740   44.3880 C   0  0  0  0  0  0  0  0  0  0  0  0
    7.7510   53.1010   44.7170 C   0  0  0  0  0  0  0  0  0  0  0  0
    8.0140   53.9930   43.5390 N   0  0  0  0  0  0  0  0  0  0  0  0
    9.0290   53.9950   43.3450 H   0  0  0  0  0  0  0  0  0  0  0  0
    7.7410   54.9480   43.7940 H   0  0  0  0  0  0  0  0  0  0  0  0
    7.2680   53.5930   42.3090 C   0  0  0  0  0  0  0  0  0  0  0  0
    7.4280   52.0740   42.0030 C   0  0  0  0  0  0  0  0  0  0  0  0
    8.7660   49.8820   44.3380 N   0  0  0  0  0  0  0  0  0  0  0  0
    8.9350   48.5300   44.5210 C   0  0  0  0  0  0  0  0  0  0  0  0
    9.7210   47.8090   45.4310 C   0  0  0  0  0  0  0  0  0  0  0  0
    9.6630   46.4140   45.4280 C   0  0  0  0  0  0  0  0  0  0  0  0
    8.8280   45.7400   44.5580 C   0  0  0  0  0  0  0  0  0  0  0  0
    8.0390   46.4570   43.6670 C   0  0  0  0  0  0  0  0  0  0  0  0
    8.1200   47.8460   43.6580 C   0  0  0  0  0  0  0  0  0  0  0  0
    6.3720   48.5490   42.0210 C   0  0  0  0  0  0  0  0  0  0  0  0
    6.7510   48.5830   40.5660 C   0  0  0  0  0  0  0  0  0  0  0  0
    7.5770   47.5870   40.0280 C   0  0  0  0  0  0  0  0  0  0  0  0
    7.8980   47.5790   38.6800 C   0  0  0  0  0  0  0  0  0  0  0  0
    7.3980   48.5590   37.8330 C   0  0  0  0  0  0  0  0  0  0  0  0
    6.5850   49.5570   38.3570 C   0  0  0  0  0  0  0  0  0  0  0  0
    6.2740   49.5700   39.7040 C   0  0  0  0  0  0  0  0  0  0  0  0
  1  2  1  0  0  0  0
  1 17  1  0  0  0  0
  2 11  2  0  0  0  0
  3  2  1  0  0  0  0
  3  4  1  0  0  0  0
  4  5  1  0  0  0  0
  6  8  1  0  0  0  0
  6  5  1  0  0  0  0
  7  6  1  0  0  0  0
  9  6  1  0  0  0  0
 10  9  1  0  0  0  0
 10  3  1  0  0  0  0
 11 12  2  0  0  0  0
 12 13  1  0  0  0  0
 14 13  1  0  0  0  0
 15 14  2  0  0  0  0
 16 15  1  0  0  0  0
 17 16  2  0  0  0  0
 17 12  1  0  0  0  0
 18  1  1  0  0  0  0
 19 18  1  0  0  0  0
 20 19  1  0  0  0  0
 21 20  2  0  0  0  0
 22 23  2  0  0  0  0
 22 21  1  0  0  0  0
 23 24  1  0  0  0  0
 24 19  2  0  0  0  0
M  END
>  <minimizedAffinity>
-8.46366882

$$$$

 OpenBabel12271915033D

 24 27  0  0  0  0  0  0  0  0999 V2000
    7.0420   49.1390   41.1000 N   0  0  0  0  0  0  0  0  0  0  0  0
    7.7860   48.1560   41.7160 C   0  0  0  0  0  0  0  0  0  0  0  0
    7.8330   47.9530   43.0860 N   0  0  0  0  0  0  0  0  0  0  0  0
    7.5010   46.5870   43.5210 C   0  0  0  0  0  0  0  0  0  0  0  0
    8.7810   45.7580   43.7710 C   0  0  0  0  0  0  0  0  0  0  0  0
    9.7390   46.4520   44.6950 N   0  0  0  0  0  0  0  0  0  0  0  0
   10.6490   46.5540   44.2140 H   0  0  0  0  0  0  0  0  0  0  0  0
    9.8830   45.8540   45.5160 H   0  0  0  0  0  0  0  0  0  0  0  0
    9.2630   47.7900   45.1550 C   0  0  0  0  0  0  0  0  0  0  0  0
    8.7760   48.6710   43.9650 C   0  0  0  0  0  0  0  0  0  0  0  0
    8.2460   47.3300   40.8090 N   0  0  0  0  0  0  0  0  0  0  0  0
    7.7100   47.6970   39.5970 C   0  0  0  0  0  0  0  0  0  0  0  0
    7.7890   47.1010   38.3300 C   0  0  0  0  0  0  0  0  0  0  0  0
    7.0930   47.6720   37.2630 C   0  0  0  0  0  0  0  0  0  0  0  0
    6.3150   48.7990   37.4450 C   0  0  0  0  0  0  0  0  0  0  0  0
    6.2260   49.3790   38.7030 C   0  0  0  0  0  0  0  0  0  0  0  0
    6.9430   48.8210   39.7580 C   0  0  0  0  0  0  0  0  0  0  0  0
    6.2450   50.1570   41.7460 C   0  0  0  0  0  0  0  0  0  0  0  0
    6.9340   51.4870   41.8910 C   0  0  0  0  0  0  0  0  0  0  0  0
    7.2770   52.2310   40.7540 C   0  0  0  0  0  0  0  0  0  0  0  0
    7.8700   53.4780   40.8720 C   0  0  0  0  0  0  0  0  0  0  0  0
    8.1290   54.0170   42.1260 C   0  0  0  0  0  0  0  0  0  0  0  0
    7.8010   53.2840   43.2600 C   0  0  0  0  0  0  0  0  0  0  0  0
    7.2180   52.0350   43.1410 C   0  0  0  0  0  0  0  0  0  0  0  0
  1  2  1  0  0  0  0
  1 18  1  0  0  0  0
  2  3  1  0  0  0  0
  3  4  1  0  0  0  0
  3 10  1  0  0  0  0
  4  5  1  0  0  0  0
  5  6  1  0  0  0  0
  6  9  1  0  0  0  0
  6  8  1  0  0  0  0
  7  6  1  0  0  0  0
 10  9  1  0  0  0  0
 11  2  2  0  0  0  0
 12 17  1  0  0  0  0
 12 11  2  0  0  0  0
 13 12  1  0  0  0  0
 14 15  2  0  0  0  0
 14 13  1  0  0  0  0
 15 16  1  0  0  0  0
 16 17  2  0  0  0  0
 17  1  1  0  0  0  0
 18 19  1  0  0  0  0
 19 24  2  0  0  0  0
 20 21  2  0  0  0  0
 20 19  1  0  0  0  0
 21 22  1  0  0  0  0
 22 23  2  0  0  0  0
 24 23  1  0  0  0  0
M  END
>  <minimizedAffinity>
-8.40668106

$$$$

 OpenBabel12271915033D

 24 27  0  0  0  0  0  0  0  0999 V2000
    6.6060   49.1940   42.0070 N   0  0  0  0  0  0  0  0  0  0  0  0
    7.3500   49.1390   43.1670 C   0  0  0  0  0  0  0  0  0  0  0  0
    7.7010   47.9650   43.8140 N   0  0  0  0  0  0  0  0  0  0  0  0
    9.1430   47.8010   44.0580 C   0  0  0  0  0  0  0  0  0  0  0  0
    9.5130   48.2210   45.4990 C   0  0  0  0  0  0  0  0  0  0  0  0
    8.6620   47.5380   46.5290 N   0  0  0  0  0  0  0  0  0  0  0  0
    8.1960   48.2600   47.1050 H   0  0  0  0  0  0  0  0  0  0  0  0
    9.2770   46.9950   47.1440 H   0  0  0  0  0  0  0  0  0  0  0  0
    7.6370   46.6220   45.9460 C   0  0  0  0  0  0  0  0  0  0  0  0
    6.8260   47.3110   44.8070 C   0  0  0  0  0  0  0  0  0  0  0  0
    7.8450   50.3240   43.4190 N   0  0  0  0  0  0  0  0  0  0  0  0
    7.5270   51.1460   42.3640 C   0  0  0  0  0  0  0  0  0  0  0  0
    7.8900   52.4700   42.0770 C   0  0  0  0  0  0  0  0  0  0  0  0
    7.4560   53.0550   40.8860 C   0  0  0  0  0  0  0  0  0  0  0  0
    6.6930   52.3410   39.9820 C   0  0  0  0  0  0  0  0  0  0  0  0
    6.3470   51.0250   40.2610 C   0  0  0  0  0  0  0  0  0  0  0  0
    6.7620   50.4560   41.4610 C   0  0  0  0  0  0  0  0  0  0  0  0
    6.0130   48.0810   41.3030 C   0  0  0  0  0  0  0  0  0  0  0  0
    6.9650   47.3290   40.4130 C   0  0  0  0  0  0  0  0  0  0  0  0
    7.6290   46.1920   40.8940 C   0  0  0  0  0  0  0  0  0  0  0  0
    8.4750   45.4620   40.0730 C   0  0  0  0  0  0  0  0  0  0  0  0
    8.6730   45.8420   38.7520 C   0  0  0  0  0  0  0  0  0  0  0  0
    8.0260   46.9730   38.2680 C   0  0  0  0  0  0  0  0  0  0  0  0
    7.1900   47.7060   39.0910 C   0  0  0  0  0  0  0  0  0  0  0  0
  1  2  1  0  0  0  0
  2 11  2  0  0  0  0
  2  3  1  0  0  0  0
  3  4  1  0  0  0  0
  3 10  1  0  0  0  0
  4  5  1  0  0  0  0
  5  6  1  0  0  0  0
  6  7  1  0  0  0  0
  6  8  1  0  0  0  0
  9  6  1  0  0  0  0
 10  9  1  0  0  0  0
 12 11  2  0  0  0  0
 13 12  1  0  0  0  0
 14 13  1  0  0  0  0
 15 16  1  0  0  0  0
 15 14  2  0  0  0  0
 16 17  2  0  0  0  0
 17  1  1  0  0  0  0
 17 12  1  0  0  0  0
 18  1  1  0  0  0  0
 19 20  1  0  0  0  0
 19 18  1  0  0  0  0
 21 20  2  0  0  0  0
 22 21  1  0  0  0  0
 23 22  2  0  0  0  0
 23 24  1  0  0  0  0
 24 19  2  0  0  0  0
M  END
>  <minimizedAffinity>
-8.34578133

$$$$

 OpenBabel12271915033D

 24 27  0  0  0  0  0  0  0  0999 V2000
    7.3900   47.7670   41.5650 N   0  0  0  0  0  0  0  0  0  0  0  0
    8.1310   47.0940   42.5140 C   0  0  0  0  0  0  0  0  0  0  0  0
    7.9460   47.2170   43.8820 N   0  0  0  0  0  0  0  0  0  0  0  0
    7.7250   45.9480   44.5930 C   0  0  0  0  0  0  0  0  0  0  0  0
    9.0350   45.4340   45.2320 C   0  0  0  0  0  0  0  0  0  0  0  0
    9.7010   46.4750   46.0830 N   0  0  0  0  0  0  0  0  0  0  0  0
   10.6630   46.6230   45.7340 H   0  0  0  0  0  0  0  0  0  0  0  0
    9.7670   46.1120   47.0410 H   0  0  0  0  0  0  0  0  0  0  0  0
    8.9720   47.7780   46.1140 C   0  0  0  0  0  0  0  0  0  0  0  0
    8.6030   48.2690   44.6820 C   0  0  0  0  0  0  0  0  0  0  0  0
    8.8580   46.1780   41.9240 N   0  0  0  0  0  0  0  0  0  0  0  0
    8.5150   46.1620   40.5920 C   0  0  0  0  0  0  0  0  0  0  0  0
    8.9090   45.3190   39.5430 C   0  0  0  0  0  0  0  0  0  0  0  0
    8.3550   45.5030   38.2750 C   0  0  0  0  0  0  0  0  0  0  0  0
    7.4140   46.4880   38.0480 C   0  0  0  0  0  0  0  0  0  0  0  0
    7.0140   47.3130   39.0910 C   0  0  0  0  0  0  0  0  0  0  0  0
    7.5880   47.1410   40.3480 C   0  0  0  0  0  0  0  0  0  0  0  0
    6.3580   48.7480   41.8070 C   0  0  0  0  0  0  0  0  0  0  0  0
    6.7500   50.1600   41.4650 C   0  0  0  0  0  0  0  0  0  0  0  0
    6.4200   50.7000   40.2140 C   0  0  0  0  0  0  0  0  0  0  0  0
    6.7330   52.0130   39.9010 C   0  0  0  0  0  0  0  0  0  0  0  0
    7.3760   52.8230   40.8290 C   0  0  0  0  0  0  0  0  0  0  0  0
    7.7160   52.2940   42.0680 C   0  0  0  0  0  0  0  0  0  0  0  0
    7.4120   50.9810   42.3760 C   0  0  0  0  0  0  0  0  0  0  0  0
  1 18  1  0  0  0  0
  1  2  1  0  0  0  0
  2  3  1  0  0  0  0
  3  4  1  0  0  0  0
  3 10  1  0  0  0  0
  4  5  1  0  0  0  0
  5  6  1  0  0  0  0
  6  9  1  0  0  0  0
  6  8  1  0  0  0  0
  7  6  1  0  0  0  0
 10  9  1  0  0  0  0
 11  2  2  0  0  0  0
 12 11  2  0  0  0  0
 13 12  1  0  0  0  0
 14 13  1  0  0  0  0
 15 14  2  0  0  0  0
 15 16  1  0  0  0  0
 16 17  2  0  0  0  0
 17 12  1  0  0  0  0
 17  1  1  0  0  0  0
 19 18  1  0  0  0  0
 19 24  2  0  0  0  0
 20 19  1  0  0  0  0
 21 20  2  0  0  0  0
 21 22  1  0  0  0  0
 22 23  2  0  0  0  0
 23 24  1  0  0  0  0
M  END
>  <minimizedAffinity>
-8.18908882

$$$$

 OpenBabel12271915033D

 24 27  0  0  0  0  0  0  0  0999 V2000
    7.5170   49.1840   44.1880 N   0  0  0  0  0  0  0  0  0  0  0  0
    7.5970   48.9320   42.8350 C   0  0  0  0  0  0  0  0  0  0  0  0
    7.3310   47.7030   42.2520 N   0  0  0  0  0  0  0  0  0  0  0  0
    6.3250   47.7330   41.1790 C   0  0  0  0  0  0  0  0  0  0  0  0
    6.9980   47.7830   39.7880 C   0  0  0  0  0  0  0  0  0  0  0  0
    8.0170   46.6960   39.6080 N   0  0  0  0  0  0  0  0  0  0  0  0
    8.9260   47.1290   39.3730 H   0  0  0  0  0  0  0  0  0  0  0  0
    7.7300   46.1170   38.8110 H   0  0  0  0  0  0  0  0  0  0  0  0
    8.1730   45.8190   40.8060 C   0  0  0  0  0  0  0  0  0  0  0  0
    8.3550   46.6500   42.1110 C   0  0  0  0  0  0  0  0  0  0  0  0
    7.7400   50.0640   42.1930 N   0  0  0  0  0  0  0  0  0  0  0  0
    7.6370   51.0840   43.1100 C   0  0  0  0  0  0  0  0  0  0  0  0
    7.6150   52.4760   42.9490 C   0  0  0  0  0  0  0  0  0  0  0  0
    7.4490   53.2900   44.0710 C   0  0  0  0  0  0  0  0  0  0  0  0
    7.2860   52.7410   45.3280 C   0  0  0  0  0  0  0  0  0  0  0  0
    7.2940   51.3610   45.4830 C   0  0  0  0  0  0  0  0  0  0  0  0
    7.4850   50.5550   44.3650 C   0  0  0  0  0  0  0  0  0  0  0  0
    7.2150   48.2310   45.2320 C   0  0  0  0  0  0  0  0  0  0  0  0
    8.4110   47.7720   46.0200 C   0  0  0  0  0  0  0  0  0  0  0  0
    9.6900   47.8060   45.4460 C   0  0  0  0  0  0  0  0  0  0  0  0
   10.8070   47.4300   46.1740 C   0  0  0  0  0  0  0  0  0  0  0  0
   10.6790   47.0160   47.4940 C   0  0  0  0  0  0  0  0  0  0  0  0
    9.4160   46.9700   48.0700 C   0  0  0  0  0  0  0  0  0  0  0  0
    8.3000   47.3360   47.3390 C   0  0  0  0  0  0  0  0  0  0  0  0
  1 17  1  0  0  0  0
  1 18  1  0  0  0  0
  2  1  1  0  0  0  0
  3  2  1  0  0  0  0
  4  3  1  0  0  0  0
  5  4  1  0  0  0  0
  6  5  1  0  0  0  0
  6  9  1  0  0  0  0
  7  6  1  0  0  0  0
  8  6  1  0  0  0  0
  9 10  1  0  0  0  0
 10  3  1  0  0  0  0
 11  2  2  0  0  0  0
 11 12  2  0  0  0  0
 12 17  1  0  0  0  0
 13 12  1  0  0  0  0
 13 14  1  0  0  0  0
 14 15  2  0  0  0  0
 15 16  1  0  0  0  0
 17 16  2  0  0  0  0
 18 19  1  0  0  0  0
 19 24  1  0  0  0  0
 20 19  2  0  0  0  0
 20 21  1  0  0  0  0
 21 22  2  0  0  0  0
 22 23  1  0  0  0  0
 24 23  2  0  0  0  0
M  END
>  <minimizedAffinity>
-8.14065266

$$$$

 OpenBabel12271915033D

 24 27  0  0  0  0  0  0  0  0999 V2000
    8.6870   48.6350   43.4700 N   0  0  0  0  0  0  0  0  0  0  0  0
    7.7910   49.6600   43.2540 C   0  0  0  0  0  0  0  0  0  0  0  0
    7.8810   50.9140   43.8380 N   0  0  0  0  0  0  0  0  0  0  0  0
    7.8760   52.0400   42.8920 C   0  0  0  0  0  0  0  0  0  0  0  0
    6.4630   52.6540   42.7680 C   0  0  0  0  0  0  0  0  0  0  0  0
    5.8750   53.0070   44.1030 N   0  0  0  0  0  0  0  0  0  0  0  0
    4.9720   52.5140   44.2090 H   0  0  0  0  0  0  0  0  0  0  0  0
    5.6850   54.0150   44.1130 H   0  0  0  0  0  0  0  0  0  0  0  0
    6.7650   52.6750   45.2550 C   0  0  0  0  0  0  0  0  0  0  0  0
    7.3080   51.2170   45.1650 C   0  0  0  0  0  0  0  0  0  0  0  0
    6.9970   49.3390   42.2630 N   0  0  0  0  0  0  0  0  0  0  0  0
    7.4400   48.1460   41.7400 C   0  0  0  0  0  0  0  0  0  0  0  0
    7.0220   47.4130   40.6210 C   0  0  0  0  0  0  0  0  0  0  0  0
    7.6940   46.2350   40.2860 C   0  0  0  0  0  0  0  0  0  0  0  0
    8.7730   45.7990   41.0300 C   0  0  0  0  0  0  0  0  0  0  0  0
    9.1940   46.5340   42.1300 C   0  0  0  0  0  0  0  0  0  0  0  0
    8.5050   47.6930   42.4740 C   0  0  0  0  0  0  0  0  0  0  0  0
    9.8170   48.6470   44.3690 C   0  0  0  0  0  0  0  0  0  0  0  0
    9.6120   47.8630   45.6370 C   0  0  0  0  0  0  0  0  0  0  0  0
   10.7030   47.2580   46.2770 C   0  0  0  0  0  0  0  0  0  0  0  0
   10.5380   46.5720   47.4690 C   0  0  0  0  0  0  0  0  0  0  0  0
    9.2830   46.4770   48.0570 C   0  0  0  0  0  0  0  0  0  0  0  0
    8.1930   47.0640   47.4260 C   0  0  0  0  0  0  0  0  0  0  0  0
    8.3580   47.7410   46.2310 C   0  0  0  0  0  0  0  0  0  0  0  0
  1 18  1  0  0  0  0
  2  1  1  0  0  0  0
  2  3  1  0  0  0  0
  3 10  1  0  0  0  0
  4  3  1  0  0  0  0
  5  4  1  0  0  0  0
  5  6  1  0  0  0  0
  6  8  1  0  0  0  0
  6  7  1  0  0  0  0
  6  9  1  0  0  0  0
 10  9  1  0  0  0  0
 11  2  2  0  0  0  0
 12 11  2  0  0  0  0
 12 17  1  0  0  0  0
 13 12  1  0  0  0  0
 14 13  1  0  0  0  0
 14 15  2  0  0  0  0
 15 16  1  0  0  0  0
 16 17  2  0  0  0  0
 17  1  1  0  0  0  0
 18 19  1  0  0  0  0
 19 24  2  0  0  0  0
 19 20  1  0  0  0  0
 20 21  2  0  0  0  0
 21 22  1  0  0  0  0
 23 22  2  0  0  0  0
 24 23  1  0  0  0  0
M  END
>  <minimizedAffinity>
-7.81999207

$$$$

 OpenBabel12271915033D

 24 27  0  0  0  0  0  0  0  0999 V2000
    7.0580   47.8810   40.9480 N   0  0  0  0  0  0  0  0  0  0  0  0
    7.7870   46.7110   40.9780 C   0  0  0  0  0  0  0  0  0  0  0  0
    7.8800   45.8770   42.0810 N   0  0  0  0  0  0  0  0  0  0  0  0
    7.5120   44.4750   41.8300 C   0  0  0  0  0  0  0  0  0  0  0  0
    8.7660   43.6070   41.5840 C   0  0  0  0  0  0  0  0  0  0  0  0
    9.7890   43.7590   42.6720 N   0  0  0  0  0  0  0  0  0  0  0  0
   10.6810   44.0630   42.2490 H   0  0  0  0  0  0  0  0  0  0  0  0
    9.9410   42.8390   43.0990 H   0  0  0  0  0  0  0  0  0  0  0  0
    9.3850   44.7220   43.7400 C   0  0  0  0  0  0  0  0  0  0  0  0
    8.8870   46.0720   43.1430 C   0  0  0  0  0  0  0  0  0  0  0  0
    8.1750   46.4120   39.7640 N   0  0  0  0  0  0  0  0  0  0  0  0
    7.6060   47.3230   38.9040 C   0  0  0  0  0  0  0  0  0  0  0  0
    7.6090   47.4040   37.5050 C   0  0  0  0  0  0  0  0  0  0  0  0
    6.8940   48.4270   36.8790 C   0  0  0  0  0  0  0  0  0  0  0  0
    6.1710   49.3420   37.6180 C   0  0  0  0  0  0  0  0  0  0  0  0
    6.1570   49.2510   39.0040 C   0  0  0  0  0  0  0  0  0  0  0  0
    6.8920   48.2450   39.6240 C   0  0  0  0  0  0  0  0  0  0  0  0
    6.3310   48.4780   42.0430 C   0  0  0  0  0  0  0  0  0  0  0  0
    7.0130   49.6640   42.6700 C   0  0  0  0  0  0  0  0  0  0  0  0
    6.9100   50.9310   42.0780 C   0  0  0  0  0  0  0  0  0  0  0  0
    7.4950   52.0410   42.6670 C   0  0  0  0  0  0  0  0  0  0  0  0
    8.1890   51.9180   43.8640 C   0  0  0  0  0  0  0  0  0  0  0  0
    8.3040   50.6650   44.4540 C   0  0  0  0  0  0  0  0  0  0  0  0
    7.7290   49.5570   43.8610 C   0  0  0  0  0  0  0  0  0  0  0  0
  1  2  1  0  0  0  0
  1 18  1  0  0  0  0
  2  3  1  0  0  0  0
  3 10  1  0  0  0  0
  4  3  1  0  0  0  0
  5  4  1  0  0  0  0
  5  6  1  0  0  0  0
  6  8  1  0  0  0  0
  6  9  1  0  0  0  0
  7  6  1  0  0  0  0
 10  9  1  0  0  0  0
 11  2  2  0  0  0  0
 12 17  1  0  0  0  0
 12 11  2  0  0  0  0
 13 12  1  0  0  0  0
 14 13  1  0  0  0  0
 14 15  2  0  0  0  0
 15 16  1  0  0  0  0
 16 17  2  0  0  0  0
 17  1  1  0  0  0  0
 18 19  1  0  0  0  0
 19 24  2  0  0  0  0
 20 21  2  0  0  0  0
 20 19  1  0  0  0  0
 21 22  1  0  0  0  0
 22 23  2  0  0  0  0
 24 23  1  0  0  0  0
M  END
>  <minimizedAffinity>
-7.71674681

$$$$

 OpenBabel12271915033D

 24 27  0  0  0  0  0  0  0  0999 V2000
    9.2430   47.6410   44.1380 N   0  0  0  0  0  0  0  0  0  0  0  0
    8.8170   46.6050   43.3350 C   0  0  0  0  0  0  0  0  0  0  0  0
    8.7890   46.6500   41.9500 N   0  0  0  0  0  0  0  0  0  0  0  0
    9.5110   45.5570   41.2800 C   0  0  0  0  0  0  0  0  0  0  0  0
    8.5410   44.4320   40.8520 C   0  0  0  0  0  0  0  0  0  0  0  0
    7.3850   44.9510   40.0480 N   0  0  0  0  0  0  0  0  0  0  0  0
    6.5050   44.6770   40.5170 H   0  0  0  0  0  0  0  0  0  0  0  0
    7.4050   44.4970   39.1280 H   0  0  0  0  0  0  0  0  0  0  0  0
    7.4100   46.4310   39.8520 C   0  0  0  0  0  0  0  0  0  0  0  0
    7.6410   47.1880   41.1940 C   0  0  0  0  0  0  0  0  0  0  0  0
    8.6660   45.5270   44.0640 N   0  0  0  0  0  0  0  0  0  0  0  0
    9.1040   45.8150   45.3350 C   0  0  0  0  0  0  0  0  0  0  0  0
    9.2560   45.0050   46.4690 C   0  0  0  0  0  0  0  0  0  0  0  0
    9.7780   45.5590   47.6400 C   0  0  0  0  0  0  0  0  0  0  0  0
   10.1630   46.8850   47.6860 C   0  0  0  0  0  0  0  0  0  0  0  0
   10.0250   47.6820   46.5580 C   0  0  0  0  0  0  0  0  0  0  0  0
    9.4810   47.1310   45.4010 C   0  0  0  0  0  0  0  0  0  0  0  0
    9.6640   48.9550   43.7090 C   0  0  0  0  0  0  0  0  0  0  0  0
    8.5910   50.0070   43.7830 C   0  0  0  0  0  0  0  0  0  0  0  0
    8.2500   50.5810   45.0160 C   0  0  0  0  0  0  0  0  0  0  0  0
    7.2970   51.5830   45.0950 C   0  0  0  0  0  0  0  0  0  0  0  0
    6.6640   52.0440   43.9470 C   0  0  0  0  0  0  0  0  0  0  0  0
    6.9880   51.4750   42.7210 C   0  0  0  0  0  0  0  0  0  0  0  0
    7.9320   50.4680   42.6450 C   0  0  0  0  0  0  0  0  0  0  0  0
  1 17  1  0  0  0  0
  2 11  2  0  0  0  0
  2  1  1  0  0  0  0
  3  2  1  0  0  0  0
  4  3  1  0  0  0  0
  5  4  1  0  0  0  0
  6  7  1  0  0  0  0
  6  5  1  0  0  0  0
  8  6  1  0  0  0  0
  9  6  1  0  0  0  0
  9 10  1  0  0  0  0
 10  3  1  0  0  0  0
 11 12  2  0  0  0  0
 12 17  1  0  0  0  0
 12 13  1  0  0  0  0
 13 14  1  0  0  0  0
 14 15  2  0  0  0  0
 16 15  1  0  0  0  0
 17 16  2  0  0  0  0
 18 19  1  0  0  0  0
 18  1  1  0  0  0  0
 19 20  2  0  0  0  0
 20 21  1  0  0  0  0
 22 21  2  0  0  0  0
 23 22  1  0  0  0  0
 24 23  2  0  0  0  0
 24 19  1  0  0  0  0
M  END
>  <minimizedAffinity>
-7.62034702

$$$$

 OpenBabel12271915033D

 24 27  0  0  0  0  0  0  0  0999 V2000
    8.5690   48.7980   43.9360 N   0  0  0  0  0  0  0  0  0  0  0  0
    8.3740   48.2510   45.1870 C   0  0  0  0  0  0  0  0  0  0  0  0
    9.0790   47.1670   45.6850 N   0  0  0  0  0  0  0  0  0  0  0  0
    9.7370   47.3990   46.9800 C   0  0  0  0  0  0  0  0  0  0  0  0
    8.8800   46.8510   48.1440 C   0  0  0  0  0  0  0  0  0  0  0  0
    8.4830   45.4190   47.9350 N   0  0  0  0  0  0  0  0  0  0  0  0
    7.4520   45.3520   47.9690 H   0  0  0  0  0  0  0  0  0  0  0  0
    8.8600   44.8650   48.7130 H   0  0  0  0  0  0  0  0  0  0  0  0
    8.9810   44.8420   46.6510 C   0  0  0  0  0  0  0  0  0  0  0  0
    8.6680   45.7710   45.4400 C   0  0  0  0  0  0  0  0  0  0  0  0
    7.5990   49.0410   45.8870 N   0  0  0  0  0  0  0  0  0  0  0  0
    7.3710   50.1750   45.1430 C   0  0  0  0  0  0  0  0  0  0  0  0
    6.7030   51.3680   45.4510 C   0  0  0  0  0  0  0  0  0  0  0  0
    6.6640   52.3940   44.5050 C   0  0  0  0  0  0  0  0  0  0  0  0
    7.2930   52.2550   43.2820 C   0  0  0  0  0  0  0  0  0  0  0  0
    7.9670   51.0780   42.9840 C   0  0  0  0  0  0  0  0  0  0  0  0
    7.9800   50.0500   43.9220 C   0  0  0  0  0  0  0  0  0  0  0  0
    9.4700   48.3210   42.9120 C   0  0  0  0  0  0  0  0  0  0  0  0
    8.8790   47.2800   42.0000 C   0  0  0  0  0  0  0  0  0  0  0  0
    7.8290   47.6150   41.1340 C   0  0  0  0  0  0  0  0  0  0  0  0
    7.3050   46.6800   40.2560 C   0  0  0  0  0  0  0  0  0  0  0  0
    7.8190   45.3900   40.2140 C   0  0  0  0  0  0  0  0  0  0  0  0
    8.8540   45.0450   41.0740 C   0  0  0  0  0  0  0  0  0  0  0  0
    9.3690   45.9760   41.9570 C   0  0  0  0  0  0  0  0  0  0  0  0
  1  2  1  0  0  0  0
  2  3  1  0  0  0  0
  2 11  2  0  0  0  0
  3  4  1  0  0  0  0
  4  5  1  0  0  0  0
  6  7  1  0  0  0  0
  6  5  1  0  0  0  0
  6  8  1  0  0  0  0
  9  6  1  0  0  0  0
 10  3  1  0  0  0  0
 10  9  1  0  0  0  0
 12 13  1  0  0  0  0
 12 11  2  0  0  0  0
 14 13  1  0  0  0  0
 15 14  2  0  0  0  0
 16 15  1  0  0  0  0
 16 17  2  0  0  0  0
 17  1  1  0  0  0  0
 17 12  1  0  0  0  0
 18  1  1  0  0  0  0
 19 18  1  0  0  0  0
 20 19  2  0  0  0  0
 21 20  1  0  0  0  0
 22 21  2  0  0  0  0
 22 23  1  0  0  0  0
 23 24  2  0  0  0  0
 24 19  1  0  0  0  0
M  END
>  <minimizedAffinity>
-7.30833387

$$$$
