
 OpenBabel12271915043D

 22 23  0  0  1  0  0  0  0  0999 V2000
    8.0870   46.1880   44.8720 C   0  0  2  0  0  0  0  0  0  0  0  0
    7.4980   46.8290   46.1660 C   0  0  2  0  0  0  0  0  0  0  0  0
    7.5550   48.2830   45.9230 O   0  0  0  0  0  0  0  0  0  0  0  0
    7.3460   48.3570   44.5060 C   0  0  2  0  0  0  0  0  0  0  0  0
    8.3250   47.3450   43.9360 C   0  0  0  0  0  0  0  0  0  0  0  0
    7.5200   49.7730   44.0260 C   0  0  0  0  0  0  0  0  0  0  0  0
    7.2120   50.1850   42.7240 C   0  0  0  0  0  0  0  0  0  0  0  0
    7.3550   51.4990   42.3460 C   0  0  0  0  0  0  0  0  0  0  0  0
    7.0410   51.9500   40.9550 C   0  0  0  0  0  0  0  0  0  0  0  0
    7.8360   52.3780   43.3150 C   0  0  0  0  0  0  0  0  0  0  0  0
    8.1410   52.0780   44.5830 N   0  0  0  0  0  0  0  0  0  0  0  0
    7.9830   50.7590   44.8920 C   0  0  0  0  0  0  0  0  0  0  0  0
    7.9940   53.6820   42.9830 O   0  0  0  0  0  0  0  0  0  0  0  0
    8.1460   54.1340   43.8510 H   0  0  0  0  0  0  0  0  0  0  0  0
    7.0940   45.3600   44.2080 O   0  0  0  0  0  0  0  0  0  0  0  0
    7.5420   44.9520   43.4660 H   0  0  0  0  0  0  0  0  0  0  0  0
    8.2250   46.4290   47.4290 C   0  0  0  0  0  0  0  0  0  0  0  0
    9.1640   47.3870   47.8170 O   0  0  0  0  0  0  0  0  0  0  0  0
   10.7370   46.9870   47.6190 P   0  0  0  0  0  0  0  0  0  0  0  0
   11.3910   47.7440   48.8380 O   0  0  0  0  0  0  0  0  0  0  0  0
   10.7260   45.4870   47.7380 O   0  0  0  0  0  0  0  0  0  0  0  0
   11.0970   47.5890   46.2870 O   0  0  0  0  0  0  0  0  0  0  0  0
  1 15  1  6  0  0  0
  1  2  1  0  0  0  0
  2 17  1  1  0  0  0
  3  2  1  0  0  0  0
  4  6  1  6  0  0  0
  4  3  1  0  0  0  0
  5  4  1  0  0  0  0
  5  1  1  0  0  0  0
  6 12  2  0  0  0  0
  7  6  1  0  0  0  0
  8  7  2  0  0  0  0
  8 10  1  0  0  0  0
  9  8  1  0  0  0  0
 10 11  2  0  0  0  0
 11 12  1  0  0  0  0
 13 10  1  0  0  0  0
 13 14  1  0  0  0  0
 16 15  1  0  0  0  0
 17 18  1  0  0  0  0
 19 21  1  0  0  0  0
 19 18  1  0  0  0  0
 19 20  1  0  0  0  0
 22 19  2  0  0  0  0
M  END
>  <minimizedAffinity>
-7.70032406

$$$$

 OpenBabel12271915043D

 22 23  0  0  1  0  0  0  0  0999 V2000
    8.2220   46.4560   44.2030 C   0  0  2  0  0  0  0  0  0  0  0  0
    8.7090   47.2060   45.4810 C   0  0  2  0  0  0  0  0  0  0  0  0
    8.6950   48.6330   45.1060 O   0  0  0  0  0  0  0  0  0  0  0  0
    7.5910   48.6900   44.1920 C   0  0  2  0  0  0  0  0  0  0  0  0
    7.8520   47.5440   43.2290 C   0  0  0  0  0  0  0  0  0  0  0  0
    7.5000   50.0570   43.5690 C   0  0  0  0  0  0  0  0  0  0  0  0
    7.8510   51.2320   44.2430 C   0  0  0  0  0  0  0  0  0  0  0  0
    7.7830   52.4540   43.6170 C   0  0  0  0  0  0  0  0  0  0  0  0
    8.1440   53.7180   44.3300 C   0  0  0  0  0  0  0  0  0  0  0  0
    7.3330   52.4540   42.2970 C   0  0  0  0  0  0  0  0  0  0  0  0
    6.9920   51.3830   41.5710 N   0  0  0  0  0  0  0  0  0  0  0  0
    7.0750   50.2040   42.2520 C   0  0  0  0  0  0  0  0  0  0  0  0
    7.2500   53.6370   41.6440 O   0  0  0  0  0  0  0  0  0  0  0  0
    7.1070   53.3800   40.6980 H   0  0  0  0  0  0  0  0  0  0  0  0
    6.9830   45.7410   44.4650 O   0  0  0  0  0  0  0  0  0  0  0  0
    6.7820   45.2570   43.6640 H   0  0  0  0  0  0  0  0  0  0  0  0
   10.0660   46.7550   45.9720 C   0  0  0  0  0  0  0  0  0  0  0  0
   10.5710   47.6020   46.9610 O   0  0  0  0  0  0  0  0  0  0  0  0
   10.4850   47.0550   48.5000 P   0  0  0  0  0  0  0  0  0  0  0  0
   11.5930   47.9390   49.1910 O   0  0  0  0  0  0  0  0  0  0  0  0
    9.0720   47.3850   48.9010 O   0  0  0  0  0  0  0  0  0  0  0  0
   10.8690   45.6040   48.3890 O   0  0  0  0  0  0  0  0  0  0  0  0
  1 15  1  1  0  0  0
  1  2  1  0  0  0  0
  2 17  1  6  0  0  0
  3  2  1  0  0  0  0
  4  6  1  6  0  0  0
  4  3  1  0  0  0  0
  5  4  1  0  0  0  0
  5  1  1  0  0  0  0
  6  7  1  0  0  0  0
  8  7  2  0  0  0  0
  8  9  1  0  0  0  0
 10  8  1  0  0  0  0
 11 12  1  0  0  0  0
 11 10  2  0  0  0  0
 12  6  2  0  0  0  0
 13 10  1  0  0  0  0
 14 13  1  0  0  0  0
 16 15  1  0  0  0  0
 17 18  1  0  0  0  0
 18 19  1  0  0  0  0
 19 21  1  0  0  0  0
 19 20  1  0  0  0  0
 22 19  2  0  0  0  0
M  END
>  <minimizedAffinity>
-7.48685217

$$$$

 OpenBabel12271915043D

 22 23  0  0  1  0  0  0  0  0999 V2000
    7.6350   47.0360   44.1830 C   0  0  2  0  0  0  0  0  0  0  0  0
    8.3610   48.2420   44.8550 C   0  0  2  0  0  0  0  0  0  0  0  0
    8.3170   49.3160   43.8450 O   0  0  0  0  0  0  0  0  0  0  0  0
    7.0700   49.0550   43.1860 C   0  0  2  0  0  0  0  0  0  0  0  0
    7.1260   47.5700   42.8700 C   0  0  0  0  0  0  0  0  0  0  0  0
    6.9050   49.9680   42.0010 C   0  0  0  0  0  0  0  0  0  0  0  0
    7.3050   51.3090   42.0060 C   0  0  0  0  0  0  0  0  0  0  0  0
    7.1650   52.0930   40.8850 C   0  0  0  0  0  0  0  0  0  0  0  0
    7.5780   53.5300   40.8790 C   0  0  0  0  0  0  0  0  0  0  0  0
    6.5920   51.4860   39.7670 C   0  0  0  0  0  0  0  0  0  0  0  0
    6.1950   50.2120   39.6680 N   0  0  0  0  0  0  0  0  0  0  0  0
    6.3560   49.4910   40.8150 C   0  0  0  0  0  0  0  0  0  0  0  0
    6.4330   52.2220   38.6420 O   0  0  0  0  0  0  0  0  0  0  0  0
    6.2050   51.5540   37.9480 H   0  0  0  0  0  0  0  0  0  0  0  0
    6.4450   46.6670   44.9320 O   0  0  0  0  0  0  0  0  0  0  0  0
    6.0920   45.8880   44.5020 H   0  0  0  0  0  0  0  0  0  0  0  0
    9.7710   47.9310   45.3020 C   0  0  0  0  0  0  0  0  0  0  0  0
    9.9030   46.6100   45.7330 O   0  0  0  0  0  0  0  0  0  0  0  0
   10.2610   46.3930   47.3140 P   0  0  0  0  0  0  0  0  0  0  0  0
   10.1280   44.8260   47.4360 O   0  0  0  0  0  0  0  0  0  0  0  0
   11.6670   46.9180   47.4230 O   0  0  0  0  0  0  0  0  0  0  0  0
    9.1700   47.1370   48.0370 O   0  0  0  0  0  0  0  0  0  0  0  0
  1  2  1  0  0  0  0
  1 15  1  1  0  0  0
  2 17  1  6  0  0  0
  3  2  1  0  0  0  0
  4  6  1  6  0  0  0
  4  3  1  0  0  0  0
  5  4  1  0  0  0  0
  5  1  1  0  0  0  0
  6  7  1  0  0  0  0
  8  7  2  0  0  0  0
  9  8  1  0  0  0  0
 10  8  1  0  0  0  0
 11 10  2  0  0  0  0
 11 12  1  0  0  0  0
 12  6  2  0  0  0  0
 13 10  1  0  0  0  0
 14 13  1  0  0  0  0
 16 15  1  0  0  0  0
 17 18  1  0  0  0  0
 18 19  1  0  0  0  0
 19 21  2  0  0  0  0
 19 20  1  0  0  0  0
 19 22  1  0  0  0  0
M  END
>  <minimizedAffinity>
-7.38419199

$$$$

 OpenBabel12271915043D

 22 23  0  0  1  0  0  0  0  0999 V2000
    7.3900   46.0100   43.0730 C   0  0  2  0  0  0  0  0  0  0  0  0
    8.8740   46.3940   42.7820 C   0  0  2  0  0  0  0  0  0  0  0  0
    8.8610   47.8620   42.6420 O   0  0  0  0  0  0  0  0  0  0  0  0
    7.8220   48.2400   43.5560 C   0  0  2  0  0  0  0  0  0  0  0  0
    6.6640   47.3250   43.1940 C   0  0  0  0  0  0  0  0  0  0  0  0
    7.5450   49.7150   43.4500 C   0  0  0  0  0  0  0  0  0  0  0  0
    7.6830   50.6000   44.5250 C   0  0  0  0  0  0  0  0  0  0  0  0
    7.4520   51.9460   44.3670 C   0  0  0  0  0  0  0  0  0  0  0  0
    7.5840   52.9020   45.5100 C   0  0  0  0  0  0  0  0  0  0  0  0
    7.0590   52.3670   43.0970 C   0  0  0  0  0  0  0  0  0  0  0  0
    6.9170   51.5980   42.0110 N   0  0  0  0  0  0  0  0  0  0  0  0
    7.1550   50.2740   42.2370 C   0  0  0  0  0  0  0  0  0  0  0  0
    6.8190   53.6850   42.8980 O   0  0  0  0  0  0  0  0  0  0  0  0
    6.7550   53.7720   41.9140 H   0  0  0  0  0  0  0  0  0  0  0  0
    7.2650   45.3850   44.3790 O   0  0  0  0  0  0  0  0  0  0  0  0
    6.3480   45.1210   44.4600 H   0  0  0  0  0  0  0  0  0  0  0  0
    9.4530   45.7060   41.5670 C   0  0  0  0  0  0  0  0  0  0  0  0
    8.5010   44.9320   40.9020 O   0  0  0  0  0  0  0  0  0  0  0  0
    8.1210   45.3960   39.3800 P   0  0  0  0  0  0  0  0  0  0  0  0
    7.2490   44.1710   38.9060 O   0  0  0  0  0  0  0  0  0  0  0  0
    7.3540   46.6730   39.5920 O   0  0  0  0  0  0  0  0  0  0  0  0
    9.4540   45.4770   38.6840 O   0  0  0  0  0  0  0  0  0  0  0  0
  1  5  1  0  0  0  0
  1 15  1  1  0  0  0
  2 17  1  6  0  0  0
  2  1  1  0  0  0  0
  3  2  1  0  0  0  0
  3  4  1  0  0  0  0
  4  6  1  6  0  0  0
  5  4  1  0  0  0  0
  6  7  1  0  0  0  0
  8  7  2  0  0  0  0
  8  9  1  0  0  0  0
 10  8  1  0  0  0  0
 11 12  1  0  0  0  0
 11 10  2  0  0  0  0
 12  6  2  0  0  0  0
 13 10  1  0  0  0  0
 14 13  1  0  0  0  0
 15 16  1  0  0  0  0
 18 17  1  0  0  0  0
 19 21  1  0  0  0  0
 19 18  1  0  0  0  0
 20 19  1  0  0  0  0
 22 19  2  0  0  0  0
M  END
>  <minimizedAffinity>
-7.06606007

$$$$

 OpenBabel12271915043D

 22 23  0  0  1  0  0  0  0  0999 V2000
    7.6910   46.8750   41.8610 C   0  0  2  0  0  0  0  0  0  0  0  0
    7.0160   46.7210   43.2590 C   0  0  2  0  0  0  0  0  0  0  0  0
    7.2000   48.0320   43.9100 O   0  0  0  0  0  0  0  0  0  0  0  0
    7.1450   48.9300   42.7920 C   0  0  2  0  0  0  0  0  0  0  0  0
    8.1060   48.3210   41.7850 C   0  0  0  0  0  0  0  0  0  0  0  0
    7.4670   50.3320   43.2340 C   0  0  0  0  0  0  0  0  0  0  0  0
    7.3240   51.4490   42.4030 C   0  0  0  0  0  0  0  0  0  0  0  0
    7.5980   52.7150   42.8650 C   0  0  0  0  0  0  0  0  0  0  0  0
    7.4610   53.9160   41.9850 C   0  0  0  0  0  0  0  0  0  0  0  0
    8.0370   52.8150   44.1850 C   0  0  0  0  0  0  0  0  0  0  0  0
    8.1880   51.8080   45.0540 N   0  0  0  0  0  0  0  0  0  0  0  0
    7.9060   50.5800   44.5310 C   0  0  0  0  0  0  0  0  0  0  0  0
    8.3200   54.0430   44.6810 O   0  0  0  0  0  0  0  0  0  0  0  0
    8.4130   53.8930   45.6550 H   0  0  0  0  0  0  0  0  0  0  0  0
    6.7170   46.7010   40.7960 O   0  0  0  0  0  0  0  0  0  0  0  0
    7.2100   46.7430   39.9760 H   0  0  0  0  0  0  0  0  0  0  0  0
    7.5780   45.5860   44.0840 C   0  0  0  0  0  0  0  0  0  0  0  0
    8.4440   44.7800   43.3430 O   0  0  0  0  0  0  0  0  0  0  0  0
    8.2140   43.1640   43.4620 P   0  0  0  0  0  0  0  0  0  0  0  0
    6.6390   43.0880   43.4560 O   0  0  0  0  0  0  0  0  0  0  0  0
    8.8780   42.6310   42.2210 O   0  0  0  0  0  0  0  0  0  0  0  0
    8.8180   42.8120   44.7960 O   0  0  0  0  0  0  0  0  0  0  0  0
  1 15  1  6  0  0  0
  1  2  1  0  0  0  0
  2  3  1  0  0  0  0
  2 17  1  1  0  0  0
  4  6  1  1  0  0  0
  4  3  1  0  0  0  0
  5  1  1  0  0  0  0
  5  4  1  0  0  0  0
  6 12  2  0  0  0  0
  7  8  2  0  0  0  0
  7  6  1  0  0  0  0
  8 10  1  0  0  0  0
  9  8  1  0  0  0  0
 10 13  1  0  0  0  0
 10 11  2  0  0  0  0
 12 11  1  0  0  0  0
 13 14  1  0  0  0  0
 16 15  1  0  0  0  0
 18 19  1  0  0  0  0
 18 17  1  0  0  0  0
 19 22  1  0  0  0  0
 20 19  1  0  0  0  0
 21 19  2  0  0  0  0
M  END
>  <minimizedAffinity>
-6.97295046

$$$$

 OpenBabel12271915043D

 22 23  0  0  1  0  0  0  0  0999 V2000
    6.7810   50.0570   38.6780 C   0  0  2  0  0  0  0  0  0  0  0  0
    6.3400   49.0390   39.7740 C   0  0  2  0  0  0  0  0  0  0  0  0
    6.7190   49.6740   41.0500 O   0  0  0  0  0  0  0  0  0  0  0  0
    6.5400   51.0670   40.7550 C   0  0  2  0  0  0  0  0  0  0  0  0
    7.2750   51.2610   39.4390 C   0  0  0  0  0  0  0  0  0  0  0  0
    7.0260   51.9100   41.9030 C   0  0  0  0  0  0  0  0  0  0  0  0
    6.7950   51.5840   43.2450 C   0  0  0  0  0  0  0  0  0  0  0  0
    7.2910   52.3700   44.2580 C   0  0  0  0  0  0  0  0  0  0  0  0
    7.0420   52.0400   45.6950 C   0  0  0  0  0  0  0  0  0  0  0  0
    8.0090   53.5020   43.8750 C   0  0  0  0  0  0  0  0  0  0  0  0
    8.2910   53.8820   42.6230 N   0  0  0  0  0  0  0  0  0  0  0  0
    7.7650   53.0640   41.6660 C   0  0  0  0  0  0  0  0  0  0  0  0
    8.5140   54.3050   44.8420 O   0  0  0  0  0  0  0  0  0  0  0  0
    9.1310   54.9080   44.3560 H   0  0  0  0  0  0  0  0  0  0  0  0
    5.6330   50.5310   37.9210 O   0  0  0  0  0  0  0  0  0  0  0  0
    5.9840   51.0950   37.2320 H   0  0  0  0  0  0  0  0  0  0  0  0
    6.9540   47.6670   39.6120 C   0  0  0  0  0  0  0  0  0  0  0  0
    6.8330   46.9010   40.7730 O   0  0  0  0  0  0  0  0  0  0  0  0
    8.1650   46.0730   41.2390 P   0  0  0  0  0  0  0  0  0  0  0  0
    8.9670   47.2030   41.9910 O   0  0  0  0  0  0  0  0  0  0  0  0
    7.6050   44.9970   42.1290 O   0  0  0  0  0  0  0  0  0  0  0  0
    8.8050   45.6580   39.9410 O   0  0  0  0  0  0  0  0  0  0  0  0
  1 15  1  6  0  0  0
  1  5  1  0  0  0  0
  1  2  1  0  0  0  0
  2 17  1  6  0  0  0
  2  3  1  0  0  0  0
  4  3  1  0  0  0  0
  4  6  1  1  0  0  0
  5  4  1  0  0  0  0
  6  7  1  0  0  0  0
  7  8  2  0  0  0  0
  8  9  1  0  0  0  0
 10  8  1  0  0  0  0
 10 13  1  0  0  0  0
 11 10  2  0  0  0  0
 12  6  2  0  0  0  0
 12 11  1  0  0  0  0
 14 13  1  0  0  0  0
 16 15  1  0  0  0  0
 17 18  1  0  0  0  0
 18 19  1  0  0  0  0
 19 20  1  0  0  0  0
 19 21  1  0  0  0  0
 22 19  2  0  0  0  0
M  END
>  <minimizedAffinity>
-6.90589857

$$$$

 OpenBabel12271915043D

 22 23  0  0  1  0  0  0  0  0999 V2000
    7.1310   48.1660   43.2930 C   0  0  2  0  0  0  0  0  0  0  0  0
    8.1390   49.3560   43.3290 C   0  0  2  0  0  0  0  0  0  0  0  0
    8.8010   49.2470   44.6420 O   0  0  0  0  0  0  0  0  0  0  0  0
    8.8200   47.8280   44.8500 C   0  0  2  0  0  0  0  0  0  0  0  0
    7.3920   47.3960   44.5610 C   0  0  0  0  0  0  0  0  0  0  0  0
    9.3310   47.5090   46.2290 C   0  0  0  0  0  0  0  0  0  0  0  0
    8.4920   47.3250   47.3340 C   0  0  0  0  0  0  0  0  0  0  0  0
    9.0060   47.0000   48.5670 C   0  0  0  0  0  0  0  0  0  0  0  0
    8.1220   46.8120   49.7580 C   0  0  0  0  0  0  0  0  0  0  0  0
   10.3940   46.8840   48.6520 C   0  0  0  0  0  0  0  0  0  0  0  0
   11.2690   47.0270   47.6500 N   0  0  0  0  0  0  0  0  0  0  0  0
   10.6950   47.3550   46.4570 C   0  0  0  0  0  0  0  0  0  0  0  0
   10.9420   46.5680   49.8490 O   0  0  0  0  0  0  0  0  0  0  0  0
   11.8840   46.3500   49.6320 H   0  0  0  0  0  0  0  0  0  0  0  0
    7.4560   47.2460   42.2150 O   0  0  0  0  0  0  0  0  0  0  0  0
    6.7650   46.5840   42.2130 H   0  0  0  0  0  0  0  0  0  0  0  0
    7.4920   50.7070   43.1220 C   0  0  0  0  0  0  0  0  0  0  0  0
    8.2080   51.7290   43.7490 O   0  0  0  0  0  0  0  0  0  0  0  0
    7.3280   52.9660   44.3580 P   0  0  0  0  0  0  0  0  0  0  0  0
    8.4720   53.9060   44.8980 O   0  0  0  0  0  0  0  0  0  0  0  0
    6.5940   53.4900   43.1540 O   0  0  0  0  0  0  0  0  0  0  0  0
    6.5200   52.3260   45.4570 O   0  0  0  0  0  0  0  0  0  0  0  0
  1 15  1  6  0  0  0
  1  2  1  0  0  0  0
  1  5  1  0  0  0  0
  2 17  1  1  0  0  0
  2  3  1  0  0  0  0
  3  4  1  0  0  0  0
  4  6  1  1  0  0  0
  5  4  1  0  0  0  0
  6 12  2  0  0  0  0
  6  7  1  0  0  0  0
  7  8  2  0  0  0  0
  8 10  1  0  0  0  0
  8  9  1  0  0  0  0
 10 13  1  0  0  0  0
 11 10  2  0  0  0  0
 12 11  1  0  0  0  0
 14 13  1  0  0  0  0
 16 15  1  0  0  0  0
 17 18  1  0  0  0  0
 18 19  1  0  0  0  0
 19 20  1  0  0  0  0
 19 22  1  0  0  0  0
 21 19  2  0  0  0  0
M  END
>  <minimizedAffinity>
-6.8573947

$$$$

 OpenBabel12271915043D

 22 23  0  0  1  0  0  0  0  0999 V2000
    8.3090   45.7520   42.5220 C   0  0  2  0  0  0  0  0  0  0  0  0
    7.5810   46.1270   43.8500 C   0  0  2  0  0  0  0  0  0  0  0  0
    7.3860   47.5870   43.7710 O   0  0  0  0  0  0  0  0  0  0  0  0
    7.2040   47.7880   42.3630 C   0  0  2  0  0  0  0  0  0  0  0  0
    8.3630   47.0340   41.7320 C   0  0  0  0  0  0  0  0  0  0  0  0
    7.1380   49.2590   42.0500 C   0  0  0  0  0  0  0  0  0  0  0  0
    6.6880   49.7620   40.8240 C   0  0  0  0  0  0  0  0  0  0  0  0
    6.6130   51.1170   40.6010 C   0  0  0  0  0  0  0  0  0  0  0  0
    6.1460   51.6680   39.2920 C   0  0  0  0  0  0  0  0  0  0  0  0
    7.0220   51.9450   41.6460 C   0  0  0  0  0  0  0  0  0  0  0  0
    7.4490   51.5540   42.8520 N   0  0  0  0  0  0  0  0  0  0  0  0
    7.5060   50.2000   43.0060 C   0  0  0  0  0  0  0  0  0  0  0  0
    6.9650   53.2860   41.4670 O   0  0  0  0  0  0  0  0  0  0  0  0
    7.1050   53.6560   42.3750 H   0  0  0  0  0  0  0  0  0  0  0  0
    7.4960   44.8480   41.7250 O   0  0  0  0  0  0  0  0  0  0  0  0
    8.0280   44.6120   40.9650 H   0  0  0  0  0  0  0  0  0  0  0  0
    8.3340   45.7140   45.0940 C   0  0  0  0  0  0  0  0  0  0  0  0
    9.6350   46.2210   45.1090 O   0  0  0  0  0  0  0  0  0  0  0  0
   10.0580   47.0980   46.4230 P   0  0  0  0  0  0  0  0  0  0  0  0
   10.6780   45.9770   47.3410 O   0  0  0  0  0  0  0  0  0  0  0  0
   11.0520   48.0840   45.8700 O   0  0  0  0  0  0  0  0  0  0  0  0
    8.7470   47.6290   46.9400 O   0  0  0  0  0  0  0  0  0  0  0  0
  1 15  1  6  0  0  0
  1  2  1  0  0  0  0
  2 17  1  1  0  0  0
  3  2  1  0  0  0  0
  4  6  1  1  0  0  0
  4  3  1  0  0  0  0
  5  4  1  0  0  0  0
  5  1  1  0  0  0  0
  6 12  2  0  0  0  0
  7  6  1  0  0  0  0
  8  7  2  0  0  0  0
  8 10  1  0  0  0  0
  9  8  1  0  0  0  0
 10 11  2  0  0  0  0
 11 12  1  0  0  0  0
 13 10  1  0  0  0  0
 13 14  1  0  0  0  0
 16 15  1  0  0  0  0
 17 18  1  0  0  0  0
 18 19  1  0  0  0  0
 19 22  1  0  0  0  0
 19 20  1  0  0  0  0
 21 19  2  0  0  0  0
M  END
>  <minimizedAffinity>
-6.85221672

$$$$

 OpenBabel12271915043D

 22 23  0  0  1  0  0  0  0  0999 V2000
    7.0300   48.1830   42.6370 C   0  0  2  0  0  0  0  0  0  0  0  0
    7.7860   49.4520   43.1390 C   0  0  2  0  0  0  0  0  0  0  0  0
    7.8300   49.3060   44.6060 O   0  0  0  0  0  0  0  0  0  0  0  0
    7.9170   47.8830   44.7620 C   0  0  2  0  0  0  0  0  0  0  0  0
    6.8070   47.3480   43.8720 C   0  0  0  0  0  0  0  0  0  0  0  0
    7.8210   47.5100   46.2170 C   0  0  0  0  0  0  0  0  0  0  0  0
    8.9400   47.3320   47.0380 C   0  0  0  0  0  0  0  0  0  0  0  0
    8.7990   47.0270   48.3710 C   0  0  0  0  0  0  0  0  0  0  0  0
    9.9860   46.8220   49.2560 C   0  0  0  0  0  0  0  0  0  0  0  0
    7.4940   46.8890   48.8430 C   0  0  0  0  0  0  0  0  0  0  0  0
    6.3690   47.0560   48.1390 N   0  0  0  0  0  0  0  0  0  0  0  0
    6.5790   47.3510   46.8230 C   0  0  0  0  0  0  0  0  0  0  0  0
    7.3090   46.5870   50.1500 O   0  0  0  0  0  0  0  0  0  0  0  0
    6.3400   46.7350   50.2970 H   0  0  0  0  0  0  0  0  0  0  0  0
    7.8850   47.3770   41.7810 O   0  0  0  0  0  0  0  0  0  0  0  0
    7.3390   46.6580   41.4620 H   0  0  0  0  0  0  0  0  0  0  0  0
    7.1440   50.7520   42.7100 C   0  0  0  0  0  0  0  0  0  0  0  0
    8.0020   51.8400   42.8850 O   0  0  0  0  0  0  0  0  0  0  0  0
    7.3540   53.1720   43.5790 P   0  0  0  0  0  0  0  0  0  0  0  0
    6.1610   52.5340   44.3880 O   0  0  0  0  0  0  0  0  0  0  0  0
    8.4810   53.7000   44.4250 O   0  0  0  0  0  0  0  0  0  0  0  0
    6.8990   54.0030   42.4090 O   0  0  0  0  0  0  0  0  0  0  0  0
  1 15  1  6  0  0  0
  1  2  1  0  0  0  0
  1  5  1  0  0  0  0
  2 17  1  1  0  0  0
  2  3  1  0  0  0  0
  3  4  1  0  0  0  0
  4  6  1  1  0  0  0
  5  4  1  0  0  0  0
  6 12  2  0  0  0  0
  6  7  1  0  0  0  0
  7  8  2  0  0  0  0
  8 10  1  0  0  0  0
  8  9  1  0  0  0  0
 10 13  1  0  0  0  0
 11 10  2  0  0  0  0
 12 11  1  0  0  0  0
 13 14  1  0  0  0  0
 16 15  1  0  0  0  0
 17 18  1  0  0  0  0
 18 19  1  0  0  0  0
 19 20  1  0  0  0  0
 19 21  1  0  0  0  0
 22 19  2  0  0  0  0
M  END
>  <minimizedAffinity>
-6.81608438

$$$$
