
 OpenBabel12271915053D

 32 35  0  0  1  0  0  0  0  0999 V2000
    8.4750   46.3140   41.2880 C   0  0  0  0  0  0  0  0  0  0  0  0
    7.9990   46.7040   42.5230 C   0  0  0  0  0  0  0  0  0  0  0  0
    8.4420   46.0570   43.7310 C   0  0  0  0  0  0  0  0  0  0  0  0
    9.3580   45.0510   43.5150 C   0  0  0  0  0  0  0  0  0  0  0  0
    9.8160   44.6600   42.3020 N   0  0  0  0  0  0  0  0  0  0  0  0
    9.3250   45.3360   41.1810 C   0  0  0  0  0  0  0  0  0  0  0  0
    7.9670   46.4710   45.0040 C   0  0  0  0  0  0  0  0  0  0  0  0
    6.6720   46.9170   45.1800 C   0  0  0  0  0  0  0  0  0  0  0  0
    6.1850   47.3280   46.4330 C   0  0  0  0  0  0  0  0  0  0  0  0
    7.0410   47.2800   47.5060 C   0  0  0  0  0  0  0  0  0  0  0  0
    6.8510   47.6140   48.8350 N   0  0  0  0  0  0  0  0  0  0  0  0
    6.0170   47.9710   49.2880 H   0  0  0  0  0  0  0  0  0  0  0  0
    8.0060   47.4010   49.5600 N   0  0  0  0  0  0  0  0  0  0  0  0
    8.8830   46.9320   48.6470 C   0  0  0  0  0  0  0  0  0  0  0  0
   10.3100   46.5600   48.9790 C   0  0  0  0  0  0  0  0  0  0  0  0
    8.3280   46.8460   47.3710 C   0  0  0  0  0  0  0  0  0  0  0  0
    8.7960   46.4430   46.1300 C   0  0  0  0  0  0  0  0  0  0  0  0
    7.9810   47.1000   40.4070 O   0  0  0  0  0  0  0  0  0  0  0  0
    7.4370   47.6460   39.0840 C   0  0  0  0  0  0  0  0  0  0  0  0
    7.0100   49.0410   39.1850 C   0  0  1  0  0  0  0  0  0  0  0  0
    6.3040   49.4850   37.8840 N   0  0  0  0  0  0  0  0  0  0  0  0
    6.4970   50.4470   37.7180 H   0  0  0  0  0  0  0  0  0  0  0  0
    5.3080   49.2770   37.9490 H   0  0  0  0  0  0  0  0  0  0  0  0
    6.6730   48.9320   37.1380 H   0  0  0  0  0  0  0  0  0  0  0  0
    6.1370   49.2030   40.4360 C   0  0  0  0  0  0  0  0  0  0  0  0
    6.5950   50.2830   41.3360 C   0  0  0  0  0  0  0  0  0  0  0  0
    6.6210   51.6030   40.9000 C   0  0  0  0  0  0  0  0  0  0  0  0
    7.0920   52.5990   41.7870 C   0  0  0  0  0  0  0  0  0  0  0  0
    7.5150   52.2800   43.0630 C   0  0  0  0  0  0  0  0  0  0  0  0
    8.1420   53.6070   44.2430 Br  0  0  0  0  0  0  0  0  0  0  0  0
    7.4810   50.9560   43.4920 C   0  0  0  0  0  0  0  0  0  0  0  0
    7.0230   49.9770   42.6280 C   0  0  0  0  0  0  0  0  0  0  0  0
  1  2  1  0  0  0  0
  2  3  2  0  0  0  0
  3  7  1  0  0  0  0
  4  3  1  0  0  0  0
  5  4  2  0  0  0  0
  6  1  2  0  0  0  0
  6  5  1  0  0  0  0
  7  8  2  0  0  0  0
  7 17  1  0  0  0  0
  8  9  1  0  0  0  0
  9 10  2  0  0  0  0
 10 11  1  0  0  0  0
 11 12  1  0  0  0  0
 11 13  1  0  0  0  0
 14 15  1  0  0  0  0
 14 13  2  0  0  0  0
 16 10  1  0  0  0  0
 16 14  1  0  0  0  0
 17 16  2  0  0  0  0
 18  1  1  0  0  0  0
 19 18  1  0  0  0  0
 20 19  1  6  0  0  0
 20 25  1  0  0  0  0
 21 23  1  0  0  0  0
 21 20  1  0  0  0  0
 22 21  1  0  0  0  0
 24 21  1  0  0  0  0
 25 26  1  0  0  0  0
 26 32  1  0  0  0  0
 27 26  2  0  0  0  0
 27 28  1  0  0  0  0
 28 29  2  0  0  0  0
 29 31  1  0  0  0  0
 29 30  1  0  0  0  0
 32 31  2  0  0  0  0
M  END
>  <minimizedAffinity>
-9.42127037

$$$$

 OpenBabel12271915053D

 32 35  0  0  1  0  0  0  0  0999 V2000
    8.8590   46.0150   42.3130 C   0  0  0  0  0  0  0  0  0  0  0  0
    8.2690   46.8850   41.4190 C   0  0  0  0  0  0  0  0  0  0  0  0
    7.9500   46.4710   40.0760 C   0  0  0  0  0  0  0  0  0  0  0  0
    8.2870   45.1630   39.8070 C   0  0  0  0  0  0  0  0  0  0  0  0
    8.8770   44.3130   40.6800 N   0  0  0  0  0  0  0  0  0  0  0  0
    9.1610   44.8000   41.9590 C   0  0  0  0  0  0  0  0  0  0  0  0
    7.3250   47.3600   39.1620 C   0  0  0  0  0  0  0  0  0  0  0  0
    6.9110   48.6190   39.5480 C   0  0  0  0  0  0  0  0  0  0  0  0
    6.2930   49.5120   38.6560 C   0  0  0  0  0  0  0  0  0  0  0  0
    6.1010   49.1000   37.3600 C   0  0  0  0  0  0  0  0  0  0  0  0
    5.5310   49.7450   36.2770 N   0  0  0  0  0  0  0  0  0  0  0  0
    5.1310   50.6750   36.2290 H   0  0  0  0  0  0  0  0  0  0  0  0
    5.5540   48.9330   35.1610 N   0  0  0  0  0  0  0  0  0  0  0  0
    6.1470   47.7990   35.5920 C   0  0  0  0  0  0  0  0  0  0  0  0
    6.3880   46.5970   34.7080 C   0  0  0  0  0  0  0  0  0  0  0  0
    6.4960   47.8620   36.9400 C   0  0  0  0  0  0  0  0  0  0  0  0
    7.1050   46.9910   37.8300 C   0  0  0  0  0  0  0  0  0  0  0  0
    8.9550   46.6120   43.4410 O   0  0  0  0  0  0  0  0  0  0  0  0
    9.2350   46.8950   44.9200 C   0  0  0  0  0  0  0  0  0  0  0  0
    9.2810   48.3240   45.2200 C   0  0  1  0  0  0  0  0  0  0  0  0
   10.3060   49.0350   44.3070 N   0  0  0  0  0  0  0  0  0  0  0  0
   10.7270   49.7850   44.8080 H   0  0  0  0  0  0  0  0  0  0  0  0
    9.8480   49.3300   43.4450 H   0  0  0  0  0  0  0  0  0  0  0  0
   11.0020   48.3630   44.0570 H   0  0  0  0  0  0  0  0  0  0  0  0
    7.8640   48.9020   45.1060 C   0  0  0  0  0  0  0  0  0  0  0  0
    7.7980   50.1470   44.3120 C   0  0  0  0  0  0  0  0  0  0  0  0
    7.9500   51.3850   44.9260 C   0  0  0  0  0  0  0  0  0  0  0  0
    7.8520   52.5510   44.1300 C   0  0  0  0  0  0  0  0  0  0  0  0
    7.6150   52.4730   42.7710 C   0  0  0  0  0  0  0  0  0  0  0  0
    7.4840   54.0260   41.7140 Br  0  0  0  0  0  0  0  0  0  0  0  0
    7.4680   51.2280   42.1660 C   0  0  0  0  0  0  0  0  0  0  0  0
    7.5610   50.0840   42.9390 C   0  0  0  0  0  0  0  0  0  0  0  0
  1 18  1  0  0  0  0
  2  1  2  0  0  0  0
  3  2  1  0  0  0  0
  4  3  2  0  0  0  0
  4  5  1  0  0  0  0
  5  6  2  0  0  0  0
  6  1  1  0  0  0  0
  7  8  1  0  0  0  0
  7  3  1  0  0  0  0
  9  8  2  0  0  0  0
 10  9  1  0  0  0  0
 11 10  1  0  0  0  0
 12 11  1  0  0  0  0
 13 14  2  0  0  0  0
 13 11  1  0  0  0  0
 14 16  1  0  0  0  0
 15 14  1  0  0  0  0
 16 10  2  0  0  0  0
 16 17  1  0  0  0  0
 17  7  2  0  0  0  0
 18 19  1  0  0  0  0
 20 19  1  6  0  0  0
 21 22  1  0  0  0  0
 21 20  1  0  0  0  0
 23 21  1  0  0  0  0
 24 21  1  0  0  0  0
 25 20  1  0  0  0  0
 26 27  1  0  0  0  0
 26 25  1  0  0  0  0
 28 27  2  0  0  0  0
 29 28  1  0  0  0  0
 30 29  1  0  0  0  0
 31 29  2  0  0  0  0
 31 32  1  0  0  0  0
 32 26  2  0  0  0  0
M  END
>  <minimizedAffinity>
-9.22677803

$$$$

 OpenBabel12271915053D

 32 35  0  0  1  0  0  0  0  0999 V2000
    7.0470   47.5320   38.8970 C   0  0  0  0  0  0  0  0  0  0  0  0
    7.2740   48.5310   39.8210 C   0  0  0  0  0  0  0  0  0  0  0  0
    6.8090   49.8750   39.5950 C   0  0  0  0  0  0  0  0  0  0  0  0
    6.1390   50.0340   38.4010 C   0  0  0  0  0  0  0  0  0  0  0  0
    5.9270   49.0560   37.4890 N   0  0  0  0  0  0  0  0  0  0  0  0
    6.4210   47.7830   37.7850 C   0  0  0  0  0  0  0  0  0  0  0  0
    7.0250   50.9000   40.5540 C   0  0  0  0  0  0  0  0  0  0  0  0
    7.0320   52.2330   40.1960 C   0  0  0  0  0  0  0  0  0  0  0  0
    7.2430   53.2600   41.1310 C   0  0  0  0  0  0  0  0  0  0  0  0
    7.4480   52.9060   42.4430 C   0  0  0  0  0  0  0  0  0  0  0  0
    7.6790   53.6790   43.5670 N   0  0  0  0  0  0  0  0  0  0  0  0
    7.7430   54.6880   43.6420 H   0  0  0  0  0  0  0  0  0  0  0  0
    7.8300   52.8810   44.6820 N   0  0  0  0  0  0  0  0  0  0  0  0
    7.6840   51.6250   44.2090 C   0  0  0  0  0  0  0  0  0  0  0  0
    7.7790   50.3920   45.0780 C   0  0  0  0  0  0  0  0  0  0  0  0
    7.4500   51.5990   42.8360 C   0  0  0  0  0  0  0  0  0  0  0  0
    7.2410   50.5950   41.9020 C   0  0  0  0  0  0  0  0  0  0  0  0
    7.4920   46.4340   39.3840 O   0  0  0  0  0  0  0  0  0  0  0  0
    8.0450   45.0110   39.4990 C   0  0  0  0  0  0  0  0  0  0  0  0
    8.2700   44.6070   40.8860 C   0  0  1  0  0  0  0  0  0  0  0  0
    8.9570   43.2240   40.9400 N   0  0  0  0  0  0  0  0  0  0  0  0
    8.6380   42.7300   41.7440 H   0  0  0  0  0  0  0  0  0  0  0  0
    9.9690   43.3450   40.9140 H   0  0  0  0  0  0  0  0  0  0  0  0
    8.6970   42.7270   40.1130 H   0  0  0  0  0  0  0  0  0  0  0  0
    9.0630   45.7080   41.6010 C   0  0  0  0  0  0  0  0  0  0  0  0
    8.4950   46.0830   42.9140 C   0  0  0  0  0  0  0  0  0  0  0  0
    9.1940   45.8230   44.0870 C   0  0  0  0  0  0  0  0  0  0  0  0
    8.5990   46.1760   45.3210 C   0  0  0  0  0  0  0  0  0  0  0  0
    7.3520   46.7700   45.3710 C   0  0  0  0  0  0  0  0  0  0  0  0
    6.5620   47.2390   47.0150 Br  0  0  0  0  0  0  0  0  0  0  0  0
    6.6630   47.0290   44.1910 C   0  0  0  0  0  0  0  0  0  0  0  0
    7.2380   46.6850   42.9810 C   0  0  0  0  0  0  0  0  0  0  0  0
  1 18  1  0  0  0  0
  1  2  2  0  0  0  0
  3  2  1  0  0  0  0
  3  7  1  0  0  0  0
  4  3  2  0  0  0  0
  5  6  2  0  0  0  0
  5  4  1  0  0  0  0
  6  1  1  0  0  0  0
  7 17  1  0  0  0  0
  8  7  2  0  0  0  0
  8  9  1  0  0  0  0
  9 10  2  0  0  0  0
 10 16  1  0  0  0  0
 10 11  1  0  0  0  0
 11 12  1  0  0  0  0
 11 13  1  0  0  0  0
 14 13  2  0  0  0  0
 14 15  1  0  0  0  0
 16 14  1  0  0  0  0
 17 16  2  0  0  0  0
 18 19  1  0  0  0  0
 20 19  1  6  0  0  0
 20 21  1  0  0  0  0
 20 25  1  0  0  0  0
 21 22  1  0  0  0  0
 23 21  1  0  0  0  0
 24 21  1  0  0  0  0
 25 26  1  0  0  0  0
 26 32  2  0  0  0  0
 26 27  1  0  0  0  0
 27 28  2  0  0  0  0
 28 29  1  0  0  0  0
 29 30  1  0  0  0  0
 31 29  2  0  0  0  0
 32 31  1  0  0  0  0
M  END
>  <minimizedAffinity>
-9.06720257

$$$$

 OpenBabel12271915053D

 32 35  0  0  1  0  0  0  0  0999 V2000
    8.1630   46.4110   40.4410 C   0  0  0  0  0  0  0  0  0  0  0  0
    8.0890   46.8040   41.7610 C   0  0  0  0  0  0  0  0  0  0  0  0
    8.4470   45.9050   42.8290 C   0  0  0  0  0  0  0  0  0  0  0  0
    8.8560   44.6640   42.3910 C   0  0  0  0  0  0  0  0  0  0  0  0
    8.9160   44.2740   41.0950 N   0  0  0  0  0  0  0  0  0  0  0  0
    8.5410   45.2080   40.1250 C   0  0  0  0  0  0  0  0  0  0  0  0
    8.3890   46.3150   44.1870 C   0  0  0  0  0  0  0  0  0  0  0  0
    9.5310   46.4330   44.9530 C   0  0  0  0  0  0  0  0  0  0  0  0
    9.4930   46.8390   46.2980 C   0  0  0  0  0  0  0  0  0  0  0  0
    8.2680   47.1220   46.8530 C   0  0  0  0  0  0  0  0  0  0  0  0
    7.9220   47.5350   48.1270 N   0  0  0  0  0  0  0  0  0  0  0  0
    8.5240   47.7150   48.9230 H   0  0  0  0  0  0  0  0  0  0  0  0
    6.5550   47.6960   48.2300 N   0  0  0  0  0  0  0  0  0  0  0  0
    6.0930   47.3760   47.0030 C   0  0  0  0  0  0  0  0  0  0  0  0
    4.6280   47.3960   46.6330 C   0  0  0  0  0  0  0  0  0  0  0  0
    7.1170   47.0150   46.1270 C   0  0  0  0  0  0  0  0  0  0  0  0
    7.1680   46.6140   44.8020 C   0  0  0  0  0  0  0  0  0  0  0  0
    7.8690   47.4200   39.7110 O   0  0  0  0  0  0  0  0  0  0  0  0
    7.4550   48.2790   38.5130 C   0  0  0  0  0  0  0  0  0  0  0  0
    6.9220   49.5800   38.9110 C   0  0  1  0  0  0  0  0  0  0  0  0
    5.9910   50.1420   37.8130 N   0  0  0  0  0  0  0  0  0  0  0  0
    6.0680   51.1350   37.7930 H   0  0  0  0  0  0  0  0  0  0  0  0
    5.0400   49.8130   37.9720 H   0  0  0  0  0  0  0  0  0  0  0  0
    6.2940   49.7630   36.9400 H   0  0  0  0  0  0  0  0  0  0  0  0
    6.2360   49.4390   40.2760 C   0  0  0  0  0  0  0  0  0  0  0  0
    6.6680   50.4540   41.2600 C   0  0  0  0  0  0  0  0  0  0  0  0
    6.7290   51.7970   40.9090 C   0  0  0  0  0  0  0  0  0  0  0  0
    7.1740   52.7290   41.8770 C   0  0  0  0  0  0  0  0  0  0  0  0
    7.5390   52.3240   43.1470 C   0  0  0  0  0  0  0  0  0  0  0  0
    8.1320   53.5660   44.4330 Br  0  0  0  0  0  0  0  0  0  0  0  0
    7.4700   50.9770   43.4890 C   0  0  0  0  0  0  0  0  0  0  0  0
    7.0370   50.0610   42.5470 C   0  0  0  0  0  0  0  0  0  0  0  0
  1  2  1  0  0  0  0
  2  3  2  0  0  0  0
  3  7  1  0  0  0  0
  4  3  1  0  0  0  0
  5  4  2  0  0  0  0
  6  1  2  0  0  0  0
  6  5  1  0  0  0  0
  7 17  2  0  0  0  0
  7  8  1  0  0  0  0
  8  9  2  0  0  0  0
  9 10  1  0  0  0  0
 10 11  1  0  0  0  0
 11 13  1  0  0  0  0
 11 12  1  0  0  0  0
 14 13  2  0  0  0  0
 15 14  1  0  0  0  0
 16 10  2  0  0  0  0
 16 14  1  0  0  0  0
 17 16  1  0  0  0  0
 18  1  1  0  0  0  0
 19 18  1  0  0  0  0
 20 19  1  6  0  0  0
 20 25  1  0  0  0  0
 21 23  1  0  0  0  0
 21 20  1  0  0  0  0
 22 21  1  0  0  0  0
 24 21  1  0  0  0  0
 25 26  1  0  0  0  0
 26 32  1  0  0  0  0
 27 26  2  0  0  0  0
 27 28  1  0  0  0  0
 28 29  2  0  0  0  0
 29 31  1  0  0  0  0
 29 30  1  0  0  0  0
 32 31  2  0  0  0  0
M  END
>  <minimizedAffinity>
-9.04649258

$$$$

 OpenBabel12271915053D

 32 35  0  0  1  0  0  0  0  0999 V2000
    7.3710   46.7670   44.3390 C   0  0  0  0  0  0  0  0  0  0  0  0
    7.2760   47.8820   43.5320 C   0  0  0  0  0  0  0  0  0  0  0  0
    7.5090   49.2040   44.0550 C   0  0  0  0  0  0  0  0  0  0  0  0
    7.8280   49.2190   45.3950 C   0  0  0  0  0  0  0  0  0  0  0  0
    7.9090   48.1260   46.1910 N   0  0  0  0  0  0  0  0  0  0  0  0
    7.6570   46.8830   45.6030 C   0  0  0  0  0  0  0  0  0  0  0  0
    7.4310   50.3500   43.2210 C   0  0  0  0  0  0  0  0  0  0  0  0
    7.7310   51.6100   43.6970 C   0  0  0  0  0  0  0  0  0  0  0  0
    7.6610   52.7550   42.8850 C   0  0  0  0  0  0  0  0  0  0  0  0
    7.2760   52.5960   41.5750 C   0  0  0  0  0  0  0  0  0  0  0  0
    7.1160   53.5180   40.5570 N   0  0  0  0  0  0  0  0  0  0  0  0
    7.2570   54.5210   40.5800 H   0  0  0  0  0  0  0  0  0  0  0  0
    6.7090   52.8930   39.3960 N   0  0  0  0  0  0  0  0  0  0  0  0
    6.6300   51.5890   39.7350 C   0  0  0  0  0  0  0  0  0  0  0  0
    6.2080   50.5020   38.7730 C   0  0  0  0  0  0  0  0  0  0  0  0
    6.9690   51.3660   41.0680 C   0  0  0  0  0  0  0  0  0  0  0  0
    7.0430   50.2440   41.8800 C   0  0  0  0  0  0  0  0  0  0  0  0
    7.1950   45.7320   43.6070 O   0  0  0  0  0  0  0  0  0  0  0  0
    7.4340   44.6030   42.6010 C   0  0  0  0  0  0  0  0  0  0  0  0
    8.8380   44.2040   42.5260 C   0  0  1  0  0  0  0  0  0  0  0  0
    8.9580   42.7320   42.0700 N   0  0  0  0  0  0  0  0  0  0  0  0
    9.7480   42.3150   42.5110 H   0  0  0  0  0  0  0  0  0  0  0  0
    8.9940   42.6930   41.0520 H   0  0  0  0  0  0  0  0  0  0  0  0
    8.1240   42.2610   42.3550 H   0  0  0  0  0  0  0  0  0  0  0  0
    9.5850   45.1850   41.6140 C   0  0  0  0  0  0  0  0  0  0  0  0
    8.7960   45.6150   40.4400 C   0  0  0  0  0  0  0  0  0  0  0  0
    8.6990   44.8000   39.3180 C   0  0  0  0  0  0  0  0  0  0  0  0
    7.9540   45.2650   38.2080 C   0  0  0  0  0  0  0  0  0  0  0  0
    7.3310   46.4980   38.2290 C   0  0  0  0  0  0  0  0  0  0  0  0
    6.3410   47.1150   36.7490 Br  0  0  0  0  0  0  0  0  0  0  0  0
    7.4310   47.3040   39.3590 C   0  0  0  0  0  0  0  0  0  0  0  0
    8.1590   46.8560   40.4470 C   0  0  0  0  0  0  0  0  0  0  0  0
  1  6  2  0  0  0  0
  2  3  2  0  0  0  0
  2  1  1  0  0  0  0
  3  4  1  0  0  0  0
  4  5  2  0  0  0  0
  6  5  1  0  0  0  0
  7  8  1  0  0  0  0
  7  3  1  0  0  0  0
  9  8  2  0  0  0  0
 10  9  1  0  0  0  0
 11 12  1  0  0  0  0
 11 10  1  0  0  0  0
 13 14  2  0  0  0  0
 13 11  1  0  0  0  0
 14 16  1  0  0  0  0
 15 14  1  0  0  0  0
 16 10  2  0  0  0  0
 16 17  1  0  0  0  0
 17  7  2  0  0  0  0
 18  1  1  0  0  0  0
 19 18  1  0  0  0  0
 20 25  1  6  0  0  0
 20 19  1  0  0  0  0
 21 24  1  0  0  0  0
 21 22  1  0  0  0  0
 21 20  1  0  0  0  0
 23 21  1  0  0  0  0
 26 32  1  0  0  0  0
 26 25  1  0  0  0  0
 27 26  2  0  0  0  0
 28 29  2  0  0  0  0
 28 27  1  0  0  0  0
 29 31  1  0  0  0  0
 30 29  1  0  0  0  0
 31 32  2  0  0  0  0
M  END
>  <minimizedAffinity>
-8.91825294

$$$$

 OpenBabel12271915053D

 32 35  0  0  1  0  0  0  0  0999 V2000
    8.1970   45.8850   43.7080 C   0  0  0  0  0  0  0  0  0  0  0  0
    7.7090   46.4680   42.5570 C   0  0  0  0  0  0  0  0  0  0  0  0
    8.2870   46.1720   41.2700 C   0  0  0  0  0  0  0  0  0  0  0  0
    9.3330   45.2770   41.3260 C   0  0  0  0  0  0  0  0  0  0  0  0
    9.8200   44.7160   42.4590 N   0  0  0  0  0  0  0  0  0  0  0  0
    9.2060   45.0660   43.6650 C   0  0  0  0  0  0  0  0  0  0  0  0
    7.7730   46.7560   40.0820 C   0  0  0  0  0  0  0  0  0  0  0  0
    7.7570   46.0640   38.8870 C   0  0  0  0  0  0  0  0  0  0  0  0
    7.2510   46.6240   37.7030 C   0  0  0  0  0  0  0  0  0  0  0  0
    6.7610   47.9070   37.7530 C   0  0  0  0  0  0  0  0  0  0  0  0
    6.2110   48.7090   36.7690 N   0  0  0  0  0  0  0  0  0  0  0  0
    6.0570   48.4980   35.7890 H   0  0  0  0  0  0  0  0  0  0  0  0
    5.8560   49.9380   37.2860 N   0  0  0  0  0  0  0  0  0  0  0  0
    6.1990   49.8570   38.5900 C   0  0  0  0  0  0  0  0  0  0  0  0
    6.0040   50.9880   39.5740 C   0  0  0  0  0  0  0  0  0  0  0  0
    6.7610   48.6240   38.9150 C   0  0  0  0  0  0  0  0  0  0  0  0
    7.2630   48.0590   40.0770 C   0  0  0  0  0  0  0  0  0  0  0  0
    7.4570   46.2590   44.6840 O   0  0  0  0  0  0  0  0  0  0  0  0
    6.9990   46.7230   46.0690 C   0  0  0  0  0  0  0  0  0  0  0  0
    6.7690   48.1650   46.1310 C   0  0  1  0  0  0  0  0  0  0  0  0
    6.2760   48.5750   47.5370 N   0  0  0  0  0  0  0  0  0  0  0  0
    5.6430   49.3390   47.4530 H   0  0  0  0  0  0  0  0  0  0  0  0
    7.0780   48.7760   48.1340 H   0  0  0  0  0  0  0  0  0  0  0  0
    5.8040   47.7870   47.9300 H   0  0  0  0  0  0  0  0  0  0  0  0
    8.0510   48.8910   45.7010 C   0  0  0  0  0  0  0  0  0  0  0  0
    7.8050   50.0330   44.7950 C   0  0  0  0  0  0  0  0  0  0  0  0
    8.0130   49.9070   43.4270 C   0  0  0  0  0  0  0  0  0  0  0  0
    7.7900   51.0350   42.6020 C   0  0  0  0  0  0  0  0  0  0  0  0
    7.3710   52.2400   43.1340 C   0  0  0  0  0  0  0  0  0  0  0  0
    7.0760   53.7400   42.0340 Br  0  0  0  0  0  0  0  0  0  0  0  0
    7.1620   52.3540   44.5050 C   0  0  0  0  0  0  0  0  0  0  0  0
    7.3800   51.2550   45.3170 C   0  0  0  0  0  0  0  0  0  0  0  0
  1 18  1  0  0  0  0
  2  1  2  0  0  0  0
  3  4  2  0  0  0  0
  3  2  1  0  0  0  0
  4  5  1  0  0  0  0
  5  6  2  0  0  0  0
  6  1  1  0  0  0  0
  7  3  1  0  0  0  0
  8  7  2  0  0  0  0
  9 10  2  0  0  0  0
  9  8  1  0  0  0  0
 10 16  1  0  0  0  0
 11 13  1  0  0  0  0
 11 10  1  0  0  0  0
 12 11  1  0  0  0  0
 13 14  2  0  0  0  0
 14 16  1  0  0  0  0
 14 15  1  0  0  0  0
 16 17  2  0  0  0  0
 17  7  1  0  0  0  0
 18 19  1  0  0  0  0
 19 20  1  0  0  0  0
 20 25  1  1  0  0  0
 20 21  1  0  0  0  0
 21 24  1  0  0  0  0
 21 23  1  0  0  0  0
 22 21  1  0  0  0  0
 26 32  1  0  0  0  0
 26 25  1  0  0  0  0
 27 26  2  0  0  0  0
 28 29  2  0  0  0  0
 28 27  1  0  0  0  0
 29 31  1  0  0  0  0
 30 29  1  0  0  0  0
 31 32  2  0  0  0  0
M  END
>  <minimizedAffinity>
-8.914855

$$$$

 OpenBabel12271915053D

 32 35  0  0  1  0  0  0  0  0999 V2000
    7.7070   50.6300   44.6420 C   0  0  0  0  0  0  0  0  0  0  0  0
    7.3710   50.2640   43.3550 C   0  0  0  0  0  0  0  0  0  0  0  0
    7.1220   51.2540   42.3380 C   0  0  0  0  0  0  0  0  0  0  0  0
    7.2570   52.5500   42.7860 C   0  0  0  0  0  0  0  0  0  0  0  0
    7.5750   52.9110   44.0520 N   0  0  0  0  0  0  0  0  0  0  0  0
    7.7890   51.8840   44.9770 C   0  0  0  0  0  0  0  0  0  0  0  0
    6.7960   50.8780   41.0090 C   0  0  0  0  0  0  0  0  0  0  0  0
    6.2550   51.7810   40.1160 C   0  0  0  0  0  0  0  0  0  0  0  0
    5.9280   51.4270   38.7960 C   0  0  0  0  0  0  0  0  0  0  0  0
    6.1590   50.1320   38.3990 C   0  0  0  0  0  0  0  0  0  0  0  0
    5.9430   49.5010   37.1870 N   0  0  0  0  0  0  0  0  0  0  0  0
    5.5590   49.8840   36.3300 H   0  0  0  0  0  0  0  0  0  0  0  0
    6.3300   48.1780   37.2520 N   0  0  0  0  0  0  0  0  0  0  0  0
    6.7820   48.0310   38.5150 C   0  0  0  0  0  0  0  0  0  0  0  0
    7.3130   46.7250   39.0630 C   0  0  0  0  0  0  0  0  0  0  0  0
    6.6920   49.2100   39.2530 C   0  0  0  0  0  0  0  0  0  0  0  0
    7.0100   49.5730   40.5530 C   0  0  0  0  0  0  0  0  0  0  0  0
    7.9470   49.5630   45.3070 O   0  0  0  0  0  0  0  0  0  0  0  0
    8.0670   48.0880   45.6990 C   0  0  0  0  0  0  0  0  0  0  0  0
    9.1200   47.3940   44.9600 C   0  0  1  0  0  0  0  0  0  0  0  0
   10.5130   47.8520   45.4460 N   0  0  0  0  0  0  0  0  0  0  0  0
   11.1480   47.8430   44.6790 H   0  0  0  0  0  0  0  0  0  0  0  0
   10.8110   47.2680   46.2270 H   0  0  0  0  0  0  0  0  0  0  0  0
   10.4180   48.7840   45.7940 H   0  0  0  0  0  0  0  0  0  0  0  0
    8.9000   45.8810   45.0850 C   0  0  0  0  0  0  0  0  0  0  0  0
    8.7570   45.1980   43.7820 C   0  0  0  0  0  0  0  0  0  0  0  0
    7.9130   44.1010   43.6480 C   0  0  0  0  0  0  0  0  0  0  0  0
    7.8290   43.4620   42.3890 C   0  0  0  0  0  0  0  0  0  0  0  0
    8.5630   43.9120   41.3070 C   0  0  0  0  0  0  0  0  0  0  0  0
    8.4500   43.0600   39.6310 Br  0  0  0  0  0  0  0  0  0  0  0  0
    9.4020   45.0130   41.4510 C   0  0  0  0  0  0  0  0  0  0  0  0
    9.4900   45.6410   42.6810 C   0  0  0  0  0  0  0  0  0  0  0  0
  1  6  1  0  0  0  0
  1 18  1  0  0  0  0
  2  1  2  0  0  0  0
  3  4  2  0  0  0  0
  3  2  1  0  0  0  0
  4  5  1  0  0  0  0
  5  6  2  0  0  0  0
  7  3  1  0  0  0  0
  8  7  2  0  0  0  0
  9  8  1  0  0  0  0
 10  9  2  0  0  0  0
 10 16  1  0  0  0  0
 11 13  1  0  0  0  0
 11 10  1  0  0  0  0
 12 11  1  0  0  0  0
 13 14  2  0  0  0  0
 14 15  1  0  0  0  0
 14 16  1  0  0  0  0
 16 17  2  0  0  0  0
 17  7  1  0  0  0  0
 18 19  1  0  0  0  0
 20 25  1  1  0  0  0
 20 21  1  0  0  0  0
 20 19  1  0  0  0  0
 21 24  1  0  0  0  0
 21 23  1  0  0  0  0
 22 21  1  0  0  0  0
 26 25  1  0  0  0  0
 27 26  1  0  0  0  0
 28 27  2  0  0  0  0
 29 31  2  0  0  0  0
 29 28  1  0  0  0  0
 30 29  1  0  0  0  0
 31 32  1  0  0  0  0
 32 26  2  0  0  0  0
M  END
>  <minimizedAffinity>
-8.81473446

$$$$

 OpenBabel12271915053D

 32 35  0  0  1  0  0  0  0  0999 V2000
    8.8690   46.4520   46.3250 C   0  0  0  0  0  0  0  0  0  0  0  0
    8.4410   47.6240   45.7360 C   0  0  0  0  0  0  0  0  0  0  0  0
    8.3480   47.7470   44.3030 C   0  0  0  0  0  0  0  0  0  0  0  0
    8.7170   46.6060   43.6250 C   0  0  0  0  0  0  0  0  0  0  0  0
    9.1500   45.4600   44.2030 N   0  0  0  0  0  0  0  0  0  0  0  0
    9.2190   45.4310   45.5990 C   0  0  0  0  0  0  0  0  0  0  0  0
    7.8880   48.9460   43.6960 C   0  0  0  0  0  0  0  0  0  0  0  0
    7.4330   48.9660   42.3930 C   0  0  0  0  0  0  0  0  0  0  0  0
    6.9740   50.1430   41.7770 C   0  0  0  0  0  0  0  0  0  0  0  0
    6.9860   51.3040   42.5130 C   0  0  0  0  0  0  0  0  0  0  0  0
    6.6040   52.5920   42.1830 N   0  0  0  0  0  0  0  0  0  0  0  0
    6.2280   52.9390   41.3080 H   0  0  0  0  0  0  0  0  0  0  0  0
    6.7970   53.4440   43.2510 N   0  0  0  0  0  0  0  0  0  0  0  0
    7.2960   52.6480   44.2200 C   0  0  0  0  0  0  0  0  0  0  0  0
    7.6780   53.1480   45.5940 C   0  0  0  0  0  0  0  0  0  0  0  0
    7.4300   51.3240   43.8040 C   0  0  0  0  0  0  0  0  0  0  0  0
    7.8810   50.1560   44.3990 C   0  0  0  0  0  0  0  0  0  0  0  0
    8.7810   46.5920   47.5940 O   0  0  0  0  0  0  0  0  0  0  0  0
    8.9510   46.3680   49.0990 C   0  0  0  0  0  0  0  0  0  0  0  0
    8.2100   47.3410   49.8990 C   0  0  1  0  0  0  0  0  0  0  0  0
    6.9290   47.7860   49.1590 N   0  0  0  0  0  0  0  0  0  0  0  0
    6.7380   48.7390   49.3760 H   0  0  0  0  0  0  0  0  0  0  0  0
    6.1630   47.1560   49.3930 H   0  0  0  0  0  0  0  0  0  0  0  0
    7.1010   47.6920   48.1790 H   0  0  0  0  0  0  0  0  0  0  0  0
    7.9320   46.7380   51.2820 C   0  0  0  0  0  0  0  0  0  0  0  0
    7.2180   47.6580   52.1930 C   0  0  0  0  0  0  0  0  0  0  0  0
    5.9540   47.3360   52.6740 C   0  0  0  0  0  0  0  0  0  0  0  0
    5.2980   48.2590   53.5220 C   0  0  0  0  0  0  0  0  0  0  0  0
    5.8920   49.4570   53.8730 C   0  0  0  0  0  0  0  0  0  0  0  0
    5.0170   50.6850   55.0010 Br  0  0  0  0  0  0  0  0  0  0  0  0
    7.1590   49.7670   53.3890 C   0  0  0  0  0  0  0  0  0  0  0  0
    7.8050   48.8690   52.5590 C   0  0  0  0  0  0  0  0  0  0  0  0
  1 18  1  0  0  0  0
  2  1  1  0  0  0  0
  3  2  2  0  0  0  0
  4  5  2  0  0  0  0
  4  3  1  0  0  0  0
  5  6  1  0  0  0  0
  6  1  2  0  0  0  0
  7  3  1  0  0  0  0
  7 17  2  0  0  0  0
  8  7  1  0  0  0  0
  9  8  2  0  0  0  0
  9 10  1  0  0  0  0
 10 16  2  0  0  0  0
 11 10  1  0  0  0  0
 11 13  1  0  0  0  0
 12 11  1  0  0  0  0
 13 14  2  0  0  0  0
 14 15  1  0  0  0  0
 16 14  1  0  0  0  0
 16 17  1  0  0  0  0
 18 19  1  0  0  0  0
 20 19  1  6  0  0  0
 20 25  1  0  0  0  0
 21 22  1  0  0  0  0
 21 23  1  0  0  0  0
 21 20  1  0  0  0  0
 24 21  1  0  0  0  0
 25 26  1  0  0  0  0
 26 32  2  0  0  0  0
 26 27  1  0  0  0  0
 27 28  2  0  0  0  0
 28 29  1  0  0  0  0
 29 30  1  0  0  0  0
 31 29  2  0  0  0  0
 32 31  1  0  0  0  0
M  END
>  <minimizedAffinity>
-8.58849049

$$$$

 OpenBabel12271915053D

 32 35  0  0  1  0  0  0  0  0999 V2000
    7.7970   50.3970   44.6160 C   0  0  0  0  0  0  0  0  0  0  0  0
    7.5110   50.0200   43.3200 C   0  0  0  0  0  0  0  0  0  0  0  0
    7.0540   50.9800   42.3470 C   0  0  0  0  0  0  0  0  0  0  0  0
    6.9450   52.2600   42.8440 C   0  0  0  0  0  0  0  0  0  0  0  0
    7.2130   52.6280   44.1200 N   0  0  0  0  0  0  0  0  0  0  0  0
    7.6420   51.6300   45.0000 C   0  0  0  0  0  0  0  0  0  0  0  0
    6.7790   50.5960   41.0080 C   0  0  0  0  0  0  0  0  0  0  0  0
    6.2270   51.4810   40.1040 C   0  0  0  0  0  0  0  0  0  0  0  0
    5.9500   51.1190   38.7750 C   0  0  0  0  0  0  0  0  0  0  0  0
    6.2430   49.8360   38.3800 C   0  0  0  0  0  0  0  0  0  0  0  0
    6.0840   49.2020   37.1610 N   0  0  0  0  0  0  0  0  0  0  0  0
    5.7080   49.5730   36.2950 H   0  0  0  0  0  0  0  0  0  0  0  0
    6.5220   47.8950   37.2320 N   0  0  0  0  0  0  0  0  0  0  0  0
    6.9460   47.7600   38.5070 C   0  0  0  0  0  0  0  0  0  0  0  0
    7.5130   46.4750   39.0650 C   0  0  0  0  0  0  0  0  0  0  0  0
    6.7890   48.9320   39.2460 C   0  0  0  0  0  0  0  0  0  0  0  0
    7.0570   49.3020   40.5540 C   0  0  0  0  0  0  0  0  0  0  0  0
    8.2530   49.3740   45.2350 O   0  0  0  0  0  0  0  0  0  0  0  0
    8.9520   48.0440   45.5320 C   0  0  0  0  0  0  0  0  0  0  0  0
    8.1810   47.1950   46.4390 C   0  0  1  0  0  0  0  0  0  0  0  0
    7.1890   46.3170   45.6440 N   0  0  0  0  0  0  0  0  0  0  0  0
    6.3640   46.1800   46.1850 H   0  0  0  0  0  0  0  0  0  0  0  0
    7.6450   45.4470   45.3740 H   0  0  0  0  0  0  0  0  0  0  0  0
    6.9620   46.8060   44.8030 H   0  0  0  0  0  0  0  0  0  0  0  0
    9.1520   46.3830   47.3040 C   0  0  0  0  0  0  0  0  0  0  0  0
    9.3310   46.9340   48.6640 C   0  0  0  0  0  0  0  0  0  0  0  0
   10.6020   47.2180   49.1500 C   0  0  0  0  0  0  0  0  0  0  0  0
   10.7260   47.7200   50.4680 C   0  0  0  0  0  0  0  0  0  0  0  0
    9.6140   47.9300   51.2620 C   0  0  0  0  0  0  0  0  0  0  0  0
    9.7810   48.5970   53.0150 Br  0  0  0  0  0  0  0  0  0  0  0  0
    8.3460   47.6460   50.7640 C   0  0  0  0  0  0  0  0  0  0  0  0
    8.2190   47.1540   49.4770 C   0  0  0  0  0  0  0  0  0  0  0  0
  1  6  1  0  0  0  0
  1 18  1  0  0  0  0
  2  1  2  0  0  0  0
  3  4  2  0  0  0  0
  3  2  1  0  0  0  0
  4  5  1  0  0  0  0
  5  6  2  0  0  0  0
  7  3  1  0  0  0  0
  8  7  2  0  0  0  0
  9  8  1  0  0  0  0
 10  9  2  0  0  0  0
 10 16  1  0  0  0  0
 11 13  1  0  0  0  0
 11 10  1  0  0  0  0
 12 11  1  0  0  0  0
 13 14  2  0  0  0  0
 14 15  1  0  0  0  0
 14 16  1  0  0  0  0
 16 17  2  0  0  0  0
 17  7  1  0  0  0  0
 18 19  1  0  0  0  0
 20 19  1  6  0  0  0
 20 25  1  0  0  0  0
 21 22  1  0  0  0  0
 21 20  1  0  0  0  0
 23 21  1  0  0  0  0
 24 21  1  0  0  0  0
 25 26  1  0  0  0  0
 26 27  2  0  0  0  0
 26 32  1  0  0  0  0
 27 28  1  0  0  0  0
 28 29  2  0  0  0  0
 29 30  1  0  0  0  0
 31 29  1  0  0  0  0
 32 31  2  0  0  0  0
M  END
>  <minimizedAffinity>
-8.55237007

$$$$
