
 OpenBabel12271914543D

 24 27  0  0  0  0  0  0  0  0999 V2000
    7.0520   49.0830   42.4550 N   0  0  0  0  0  0  0  0  0  0  0  0
    7.6900   49.0930   43.6690 C   0  0  0  0  0  0  0  0  0  0  0  0
    7.8580   47.9380   44.4030 N   0  0  0  0  0  0  0  0  0  0  0  0
    6.8990   47.6810   45.4960 C   0  0  0  0  0  0  0  0  0  0  0  0
    7.5010   46.7000   46.5270 C   0  0  0  0  0  0  0  0  0  0  0  0
    8.7670   47.2530   47.0910 N   0  0  0  0  0  0  0  0  0  0  0  0
    9.2400   46.5210   47.6320 H   0  0  0  0  0  0  0  0  0  0  0  0
    8.5590   48.0230   47.7540 H   0  0  0  0  0  0  0  0  0  0  0  0
    9.7180   47.7890   46.0550 C   0  0  0  0  0  0  0  0  0  0  0  0
    9.2330   47.4780   44.6280 C   0  0  0  0  0  0  0  0  0  0  0  0
    8.1240   50.2920   43.9560 N   0  0  0  0  0  0  0  0  0  0  0  0
    7.7410   51.1130   42.9370 C   0  0  0  0  0  0  0  0  0  0  0  0
    7.9230   52.4840   42.7450 C   0  0  0  0  0  0  0  0  0  0  0  0
    7.4210   53.0840   41.5890 C   0  0  0  0  0  0  0  0  0  0  0  0
    6.7350   52.3290   40.6400 C   0  0  0  0  0  0  0  0  0  0  0  0
    6.5390   50.9670   40.8380 C   0  0  0  0  0  0  0  0  0  0  0  0
    7.0540   50.3690   41.9810 C   0  0  0  0  0  0  0  0  0  0  0  0
    6.3760   47.9530   41.8620 C   0  0  0  0  0  0  0  0  0  0  0  0
    7.2060   47.2210   40.8520 C   0  0  0  0  0  0  0  0  0  0  0  0
    8.0010   46.1340   41.1910 C   0  0  0  0  0  0  0  0  0  0  0  0
    8.7100   45.4400   40.2210 C   0  0  0  0  0  0  0  0  0  0  0  0
    8.6520   45.8240   38.8930 C   0  0  0  0  0  0  0  0  0  0  0  0
    7.8690   46.9070   38.5480 C   0  0  0  0  0  0  0  0  0  0  0  0
    7.1580   47.6010   39.5130 C   0  0  0  0  0  0  0  0  0  0  0  0
  1  2  1  0  0  0  0
  2 11  2  0  0  0  0
  2  3  1  0  0  0  0
  3 10  1  0  0  0  0
  3  4  1  0  0  0  0
  4  5  1  0  0  0  0
  5  6  1  0  0  0  0
  6  7  1  0  0  0  0
  6  8  1  0  0  0  0
  9  6  1  0  0  0  0
 10  9  1  0  0  0  0
 12 11  2  0  0  0  0
 13 12  1  0  0  0  0
 14 13  1  0  0  0  0
 15 16  1  0  0  0  0
 15 14  2  0  0  0  0
 16 17  2  0  0  0  0
 17  1  1  0  0  0  0
 17 12  1  0  0  0  0
 18  1  1  0  0  0  0
 19 20  1  0  0  0  0
 19 18  1  0  0  0  0
 21 20  2  0  0  0  0
 22 21  1  0  0  0  0
 23 22  2  0  0  0  0
 23 24  1  0  0  0  0
 24 19  2  0  0  0  0
M  END
>  <minimizedAffinity>
-8.17598915

$$$$

 OpenBabel12271914543D

 24 27  0  0  0  0  0  0  0  0999 V2000
    8.7360   48.0710   43.8730 N   0  0  0  0  0  0  0  0  0  0  0  0
    8.6620   47.1880   44.9200 C   0  0  0  0  0  0  0  0  0  0  0  0
    8.9820   47.5670   46.2060 N   0  0  0  0  0  0  0  0  0  0  0  0
   10.3320   47.2290   46.6980 C   0  0  0  0  0  0  0  0  0  0  0  0
   10.3600   47.2160   48.2430 C   0  0  0  0  0  0  0  0  0  0  0  0
    9.3730   46.2290   48.7710 N   0  0  0  0  0  0  0  0  0  0  0  0
    9.2770   46.3610   49.7830 H   0  0  0  0  0  0  0  0  0  0  0  0
    9.7200   45.2630   48.6290 H   0  0  0  0  0  0  0  0  0  0  0  0
    8.0120   46.3220   48.1350 C   0  0  0  0  0  0  0  0  0  0  0  0
    7.9060   47.5420   47.2030 C   0  0  0  0  0  0  0  0  0  0  0  0
    8.2130   46.0270   44.5170 N   0  0  0  0  0  0  0  0  0  0  0  0
    8.0180   46.1170   43.1710 C   0  0  0  0  0  0  0  0  0  0  0  0
    7.5740   45.1720   42.2430 C   0  0  0  0  0  0  0  0  0  0  0  0
    7.4610   45.5350   40.9000 C   0  0  0  0  0  0  0  0  0  0  0  0
    7.7980   46.8210   40.4840 C   0  0  0  0  0  0  0  0  0  0  0  0
    8.2550   47.7580   41.4040 C   0  0  0  0  0  0  0  0  0  0  0  0
    8.3510   47.3990   42.7430 C   0  0  0  0  0  0  0  0  0  0  0  0
    9.2650   49.4130   43.9330 C   0  0  0  0  0  0  0  0  0  0  0  0
    8.2070   50.4720   43.9870 C   0  0  0  0  0  0  0  0  0  0  0  0
    7.6620   50.9190   45.1840 C   0  0  0  0  0  0  0  0  0  0  0  0
    6.7270   51.9440   45.2030 C   0  0  0  0  0  0  0  0  0  0  0  0
    6.3060   52.5380   44.0260 C   0  0  0  0  0  0  0  0  0  0  0  0
    6.8370   52.0960   42.8310 C   0  0  0  0  0  0  0  0  0  0  0  0
    7.7720   51.0740   42.8090 C   0  0  0  0  0  0  0  0  0  0  0  0
  1 18  1  0  0  0  0
  1  2  1  0  0  0  0
  2  3  1  0  0  0  0
  3  4  1  0  0  0  0
  3 10  1  0  0  0  0
  4  5  1  0  0  0  0
  5  6  1  0  0  0  0
  6  7  1  0  0  0  0
  8  6  1  0  0  0  0
  9  6  1  0  0  0  0
 10  9  1  0  0  0  0
 11  2  2  0  0  0  0
 12 11  2  0  0  0  0
 13 12  1  0  0  0  0
 14 13  1  0  0  0  0
 15 14  2  0  0  0  0
 15 16  1  0  0  0  0
 16 17  2  0  0  0  0
 17 12  1  0  0  0  0
 17  1  1  0  0  0  0
 18 19  1  0  0  0  0
 19 20  2  0  0  0  0
 20 21  1  0  0  0  0
 22 21  2  0  0  0  0
 23 22  1  0  0  0  0
 24 23  2  0  0  0  0
 24 19  1  0  0  0  0
M  END
>  <minimizedAffinity>
-8.01274681

$$$$

 OpenBabel12271914543D

 24 27  0  0  0  0  0  0  0  0999 V2000
    6.7940   49.0050   41.0530 N   0  0  0  0  0  0  0  0  0  0  0  0
    7.6910   48.1380   41.6220 C   0  0  0  0  0  0  0  0  0  0  0  0
    7.9220   48.1290   42.9810 N   0  0  0  0  0  0  0  0  0  0  0  0
    9.1090   48.8570   43.4740 C   0  0  0  0  0  0  0  0  0  0  0  0
    9.5300   48.3300   44.8640 C   0  0  0  0  0  0  0  0  0  0  0  0
    9.8310   46.8690   44.7950 N   0  0  0  0  0  0  0  0  0  0  0  0
    9.9340   46.5040   45.7480 H   0  0  0  0  0  0  0  0  0  0  0  0
   10.7380   46.7120   44.3180 H   0  0  0  0  0  0  0  0  0  0  0  0
    8.7890   46.0620   44.0700 C   0  0  0  0  0  0  0  0  0  0  0  0
    7.5570   46.9140   43.7180 C   0  0  0  0  0  0  0  0  0  0  0  0
    8.2060   47.3450   40.7190 N   0  0  0  0  0  0  0  0  0  0  0  0
    7.6780   47.7080   39.5160 C   0  0  0  0  0  0  0  0  0  0  0  0
    7.8960   47.2100   38.2300 C   0  0  0  0  0  0  0  0  0  0  0  0
    7.2080   47.7740   37.1540 C   0  0  0  0  0  0  0  0  0  0  0  0
    6.3210   48.8290   37.3560 C   0  0  0  0  0  0  0  0  0  0  0  0
    6.1150   49.3350   38.6330 C   0  0  0  0  0  0  0  0  0  0  0  0
    6.7880   48.7620   39.7050 C   0  0  0  0  0  0  0  0  0  0  0  0
    6.1010   50.0740   41.7340 C   0  0  0  0  0  0  0  0  0  0  0  0
    6.8360   51.3780   41.7070 C   0  0  0  0  0  0  0  0  0  0  0  0
    7.0960   52.0610   40.5250 C   0  0  0  0  0  0  0  0  0  0  0  0
    7.7260   53.2970   40.5400 C   0  0  0  0  0  0  0  0  0  0  0  0
    8.1220   53.8740   41.7340 C   0  0  0  0  0  0  0  0  0  0  0  0
    7.8730   53.2000   42.9130 C   0  0  0  0  0  0  0  0  0  0  0  0
    7.2430   51.9670   42.9020 C   0  0  0  0  0  0  0  0  0  0  0  0
  1  2  1  0  0  0  0
  1 18  1  0  0  0  0
  2  3  1  0  0  0  0
  3  4  1  0  0  0  0
  3 10  1  0  0  0  0
  4  5  1  0  0  0  0
  6  5  1  0  0  0  0
  6  7  1  0  0  0  0
  8  6  1  0  0  0  0
  9  6  1  0  0  0  0
 10  9  1  0  0  0  0
 11  2  2  0  0  0  0
 12 17  1  0  0  0  0
 12 11  2  0  0  0  0
 13 12  1  0  0  0  0
 14 15  2  0  0  0  0
 14 13  1  0  0  0  0
 15 16  1  0  0  0  0
 16 17  2  0  0  0  0
 17  1  1  0  0  0  0
 19 18  1  0  0  0  0
 19 24  2  0  0  0  0
 20 21  2  0  0  0  0
 20 19  1  0  0  0  0
 21 22  1  0  0  0  0
 22 23  2  0  0  0  0
 24 23  1  0  0  0  0
M  END
>  <minimizedAffinity>
-7.88088799

$$$$

 OpenBabel12271914543D

 24 27  0  0  0  0  0  0  0  0999 V2000
    7.1520   48.8590   42.8370 N   0  0  0  0  0  0  0  0  0  0  0  0
    7.6440   50.0910   43.1860 C   0  0  0  0  0  0  0  0  0  0  0  0
    7.1200   51.2510   42.6570 N   0  0  0  0  0  0  0  0  0  0  0  0
    7.8380   51.8660   41.5210 C   0  0  0  0  0  0  0  0  0  0  0  0
    7.4790   53.3630   41.3990 C   0  0  0  0  0  0  0  0  0  0  0  0
    7.8260   54.0850   42.6590 N   0  0  0  0  0  0  0  0  0  0  0  0
    7.4220   55.0270   42.6270 H   0  0  0  0  0  0  0  0  0  0  0  0
    8.8520   54.2050   42.7330 H   0  0  0  0  0  0  0  0  0  0  0  0
    7.3560   53.3930   43.9100 C   0  0  0  0  0  0  0  0  0  0  0  0
    6.4660   52.1800   43.5850 C   0  0  0  0  0  0  0  0  0  0  0  0
    8.5880   49.9780   44.0830 N   0  0  0  0  0  0  0  0  0  0  0  0
    8.7630   48.6460   44.3160 C   0  0  0  0  0  0  0  0  0  0  0  0
    9.6480   47.9690   45.1580 C   0  0  0  0  0  0  0  0  0  0  0  0
    9.6140   46.5750   45.2070 C   0  0  0  0  0  0  0  0  0  0  0  0
    8.7150   45.8610   44.4170 C   0  0  0  0  0  0  0  0  0  0  0  0
    7.8450   46.5320   43.5660 C   0  0  0  0  0  0  0  0  0  0  0  0
    7.8700   47.9210   43.5310 C   0  0  0  0  0  0  0  0  0  0  0  0
    6.1640   48.5990   41.8170 C   0  0  0  0  0  0  0  0  0  0  0  0
    6.7390   48.5000   40.4370 C   0  0  0  0  0  0  0  0  0  0  0  0
    7.5450   47.4400   40.0420 C   0  0  0  0  0  0  0  0  0  0  0  0
    8.0120   47.3480   38.7390 C   0  0  0  0  0  0  0  0  0  0  0  0
    7.6950   48.3170   37.8040 C   0  0  0  0  0  0  0  0  0  0  0  0
    6.8990   49.3770   38.1890 C   0  0  0  0  0  0  0  0  0  0  0  0
    6.4300   49.4720   39.4890 C   0  0  0  0  0  0  0  0  0  0  0  0
  1  2  1  0  0  0  0
  1 17  1  0  0  0  0
  2 11  2  0  0  0  0
  3  2  1  0  0  0  0
  3 10  1  0  0  0  0
  4  3  1  0  0  0  0
  5  4  1  0  0  0  0
  5  6  1  0  0  0  0
  6  8  1  0  0  0  0
  6  9  1  0  0  0  0
  7  6  1  0  0  0  0
 10  9  1  0  0  0  0
 11 12  2  0  0  0  0
 12 13  1  0  0  0  0
 13 14  1  0  0  0  0
 15 14  2  0  0  0  0
 16 15  1  0  0  0  0
 17 16  2  0  0  0  0
 17 12  1  0  0  0  0
 18  1  1  0  0  0  0
 19 18  1  0  0  0  0
 20 19  1  0  0  0  0
 21 20  2  0  0  0  0
 22 23  2  0  0  0  0
 22 21  1  0  0  0  0
 23 24  1  0  0  0  0
 24 19  2  0  0  0  0
M  END
>  <minimizedAffinity>
-7.80806351

$$$$

 OpenBabel12271914543D

 24 27  0  0  0  0  0  0  0  0999 V2000
    7.1930   49.4150   44.0130 N   0  0  0  0  0  0  0  0  0  0  0  0
    7.3850   49.2880   42.6610 C   0  0  0  0  0  0  0  0  0  0  0  0
    7.2670   48.0690   42.0280 N   0  0  0  0  0  0  0  0  0  0  0  0
    8.5130   47.3270   41.7460 C   0  0  0  0  0  0  0  0  0  0  0  0
    8.2900   46.3060   40.6080 C   0  0  0  0  0  0  0  0  0  0  0  0
    7.8310   47.0020   39.3700 N   0  0  0  0  0  0  0  0  0  0  0  0
    7.5200   46.3020   38.6880 H   0  0  0  0  0  0  0  0  0  0  0  0
    8.6190   47.5130   38.9310 H   0  0  0  0  0  0  0  0  0  0  0  0
    6.7190   47.9900   39.5980 C   0  0  0  0  0  0  0  0  0  0  0  0
    6.1910   47.9220   41.0420 C   0  0  0  0  0  0  0  0  0  0  0  0
    7.6240   50.4520   42.1150 N   0  0  0  0  0  0  0  0  0  0  0  0
    7.6330   51.3730   43.1190 C   0  0  0  0  0  0  0  0  0  0  0  0
    7.8570   52.7510   43.1000 C   0  0  0  0  0  0  0  0  0  0  0  0
    7.8040   53.4690   44.2950 C   0  0  0  0  0  0  0  0  0  0  0  0
    7.5410   52.8200   45.5000 C   0  0  0  0  0  0  0  0  0  0  0  0
    7.3330   51.4460   45.5230 C   0  0  0  0  0  0  0  0  0  0  0  0
    7.3700   50.7360   44.3300 C   0  0  0  0  0  0  0  0  0  0  0  0
    6.9910   48.3300   44.9450 C   0  0  0  0  0  0  0  0  0  0  0  0
    8.2360   47.9270   45.6750 C   0  0  0  0  0  0  0  0  0  0  0  0
    9.5020   48.0840   45.1260 C   0  0  0  0  0  0  0  0  0  0  0  0
   10.6380   47.7560   45.8530 C   0  0  0  0  0  0  0  0  0  0  0  0
   10.5360   47.2540   47.1380 C   0  0  0  0  0  0  0  0  0  0  0  0
    9.2800   47.0890   47.6880 C   0  0  0  0  0  0  0  0  0  0  0  0
    8.1440   47.4160   46.9670 C   0  0  0  0  0  0  0  0  0  0  0  0
  1 17  1  0  0  0  0
  1 18  1  0  0  0  0
  2  1  1  0  0  0  0
  3  2  1  0  0  0  0
  4  3  1  0  0  0  0
  5  4  1  0  0  0  0
  6  9  1  0  0  0  0
  6  5  1  0  0  0  0
  7  6  1  0  0  0  0
  8  6  1  0  0  0  0
  9 10  1  0  0  0  0
 10  3  1  0  0  0  0
 11  2  2  0  0  0  0
 11 12  2  0  0  0  0
 12 17  1  0  0  0  0
 13 12  1  0  0  0  0
 13 14  1  0  0  0  0
 14 15  2  0  0  0  0
 15 16  1  0  0  0  0
 17 16  2  0  0  0  0
 18 19  1  0  0  0  0
 19 24  1  0  0  0  0
 20 19  2  0  0  0  0
 20 21  1  0  0  0  0
 21 22  2  0  0  0  0
 22 23  1  0  0  0  0
 24 23  2  0  0  0  0
M  END
>  <minimizedAffinity>
-7.7331996

$$$$

 OpenBabel12271914543D

 24 27  0  0  0  0  0  0  0  0999 V2000
    6.9000   47.1660   41.1470 N   0  0  0  0  0  0  0  0  0  0  0  0
    7.6730   46.0380   41.0420 C   0  0  0  0  0  0  0  0  0  0  0  0
    7.7780   45.1380   42.0800 N   0  0  0  0  0  0  0  0  0  0  0  0
    8.9680   45.2390   42.9490 C   0  0  0  0  0  0  0  0  0  0  0  0
    9.2210   43.9020   43.6810 C   0  0  0  0  0  0  0  0  0  0  0  0
    9.4140   42.7990   42.6940 N   0  0  0  0  0  0  0  0  0  0  0  0
    9.4020   41.9010   43.1900 H   0  0  0  0  0  0  0  0  0  0  0  0
   10.3450   42.8770   42.2450 H   0  0  0  0  0  0  0  0  0  0  0  0
    8.3820   42.7680   41.5990 C   0  0  0  0  0  0  0  0  0  0  0  0
    7.2560   43.7860   41.8550 C   0  0  0  0  0  0  0  0  0  0  0  0
    8.2040   45.9500   39.8510 N   0  0  0  0  0  0  0  0  0  0  0  0
    7.8160   47.0550   39.1540 C   0  0  0  0  0  0  0  0  0  0  0  0
    8.1100   47.4710   37.8530 C   0  0  0  0  0  0  0  0  0  0  0  0
    7.5670   48.6670   37.3800 C   0  0  0  0  0  0  0  0  0  0  0  0
    6.7500   49.4450   38.1960 C   0  0  0  0  0  0  0  0  0  0  0  0
    6.4680   49.0400   39.4950 C   0  0  0  0  0  0  0  0  0  0  0  0
    6.9960   47.8420   39.9590 C   0  0  0  0  0  0  0  0  0  0  0  0
    6.2320   47.6270   42.3420 C   0  0  0  0  0  0  0  0  0  0  0  0
    7.0200   48.6370   43.1180 C   0  0  0  0  0  0  0  0  0  0  0  0
    7.7800   48.2940   44.2280 C   0  0  0  0  0  0  0  0  0  0  0  0
    8.5460   49.2440   44.8890 C   0  0  0  0  0  0  0  0  0  0  0  0
    8.5620   50.5600   44.4630 C   0  0  0  0  0  0  0  0  0  0  0  0
    7.8040   50.9120   43.3640 C   0  0  0  0  0  0  0  0  0  0  0  0
    7.0390   49.9660   42.7010 C   0  0  0  0  0  0  0  0  0  0  0  0
  1 18  1  0  0  0  0
  2  1  1  0  0  0  0
  2  3  1  0  0  0  0
  3  4  1  0  0  0  0
  4  5  1  0  0  0  0
  6  7  1  0  0  0  0
  6  5  1  0  0  0  0
  8  6  1  0  0  0  0
  9 10  1  0  0  0  0
  9  6  1  0  0  0  0
 10  3  1  0  0  0  0
 11  2  2  0  0  0  0
 12 11  2  0  0  0  0
 12 17  1  0  0  0  0
 13 12  1  0  0  0  0
 14 13  1  0  0  0  0
 14 15  2  0  0  0  0
 15 16  1  0  0  0  0
 16 17  2  0  0  0  0
 17  1  1  0  0  0  0
 18 19  1  0  0  0  0
 19 20  1  0  0  0  0
 20 21  2  0  0  0  0
 22 21  1  0  0  0  0
 23 22  2  0  0  0  0
 24 19  2  0  0  0  0
 24 23  1  0  0  0  0
M  END
>  <minimizedAffinity>
-7.25540257

$$$$

 OpenBabel12271914543D

 24 27  0  0  0  0  0  0  0  0999 V2000
    7.1200   48.3010   42.2460 N   0  0  0  0  0  0  0  0  0  0  0  0
    7.9520   47.3950   42.8510 C   0  0  0  0  0  0  0  0  0  0  0  0
    7.9690   46.0690   42.4730 N   0  0  0  0  0  0  0  0  0  0  0  0
    7.1940   45.1180   43.2960 C   0  0  0  0  0  0  0  0  0  0  0  0
    7.7200   43.6790   43.1020 C   0  0  0  0  0  0  0  0  0  0  0  0
    9.1630   43.6000   43.4740 N   0  0  0  0  0  0  0  0  0  0  0  0
    9.5370   42.6930   43.1730 H   0  0  0  0  0  0  0  0  0  0  0  0
    9.2720   43.6380   44.5040 H   0  0  0  0  0  0  0  0  0  0  0  0
   10.0090   44.6970   42.8850 C   0  0  0  0  0  0  0  0  0  0  0  0
    9.2090   45.5510   41.8860 C   0  0  0  0  0  0  0  0  0  0  0  0
    8.7080   47.9810   43.7420 N   0  0  0  0  0  0  0  0  0  0  0  0
    8.3540   49.2970   43.7660 C   0  0  0  0  0  0  0  0  0  0  0  0
    8.8230   50.3610   44.5400 C   0  0  0  0  0  0  0  0  0  0  0  0
    8.2770   51.6320   44.3570 C   0  0  0  0  0  0  0  0  0  0  0  0
    7.2670   51.8400   43.4200 C   0  0  0  0  0  0  0  0  0  0  0  0
    6.7890   50.7800   42.6590 C   0  0  0  0  0  0  0  0  0  0  0  0
    7.3440   49.5190   42.8320 C   0  0  0  0  0  0  0  0  0  0  0  0
    6.0950   47.9940   41.2760 C   0  0  0  0  0  0  0  0  0  0  0  0
    6.5250   48.2140   39.8580 C   0  0  0  0  0  0  0  0  0  0  0  0
    7.2500   47.2670   39.1460 C   0  0  0  0  0  0  0  0  0  0  0  0
    7.5820   47.4770   37.8150 C   0  0  0  0  0  0  0  0  0  0  0  0
    7.2080   48.6410   37.1680 C   0  0  0  0  0  0  0  0  0  0  0  0
    6.4920   49.5910   37.8700 C   0  0  0  0  0  0  0  0  0  0  0  0
    6.1580   49.3840   39.1990 C   0  0  0  0  0  0  0  0  0  0  0  0
  1 17  1  0  0  0  0
  1  2  1  0  0  0  0
  2 11  2  0  0  0  0
  3  2  1  0  0  0  0
  3  4  1  0  0  0  0
  5  4  1  0  0  0  0
  5  6  1  0  0  0  0
  6  8  1  0  0  0  0
  7  6  1  0  0  0  0
  9  6  1  0  0  0  0
 10  3  1  0  0  0  0
 10  9  1  0  0  0  0
 11 12  2  0  0  0  0
 12 13  1  0  0  0  0
 14 13  1  0  0  0  0
 15 14  2  0  0  0  0
 16 17  2  0  0  0  0
 16 15  1  0  0  0  0
 17 12  1  0  0  0  0
 18  1  1  0  0  0  0
 19 18  1  0  0  0  0
 20 19  2  0  0  0  0
 21 20  1  0  0  0  0
 22 21  2  0  0  0  0
 22 23  1  0  0  0  0
 23 24  2  0  0  0  0
 24 19  1  0  0  0  0
M  END
>  <minimizedAffinity>
-7.0982213

$$$$

 OpenBabel12271914543D

 24 27  0  0  0  0  0  0  0  0999 V2000
    8.5400   48.9500   43.8850 N   0  0  0  0  0  0  0  0  0  0  0  0
    8.1910   48.1480   42.8290 C   0  0  0  0  0  0  0  0  0  0  0  0
    8.5190   46.8100   42.8010 N   0  0  0  0  0  0  0  0  0  0  0  0
    9.7140   46.4190   42.0260 C   0  0  0  0  0  0  0  0  0  0  0  0
    9.6470   44.9230   41.6440 C   0  0  0  0  0  0  0  0  0  0  0  0
    8.4190   44.6470   40.8420 N   0  0  0  0  0  0  0  0  0  0  0  0
    8.3000   43.6330   40.7510 H   0  0  0  0  0  0  0  0  0  0  0  0
    8.5250   45.0200   39.8810 H   0  0  0  0  0  0  0  0  0  0  0  0
    7.1620   45.2370   41.4230 C   0  0  0  0  0  0  0  0  0  0  0  0
    7.4140   45.8450   42.8140 C   0  0  0  0  0  0  0  0  0  0  0  0
    7.4950   48.8190   41.9480 N   0  0  0  0  0  0  0  0  0  0  0  0
    7.4060   50.1020   42.3980 C   0  0  0  0  0  0  0  0  0  0  0  0
    6.7980   51.2300   41.8420 C   0  0  0  0  0  0  0  0  0  0  0  0
    6.8560   52.4440   42.5270 C   0  0  0  0  0  0  0  0  0  0  0  0
    7.5220   52.5380   43.7480 C   0  0  0  0  0  0  0  0  0  0  0  0
    8.1410   51.4200   44.2940 C   0  0  0  0  0  0  0  0  0  0  0  0
    8.0680   50.2080   43.6180 C   0  0  0  0  0  0  0  0  0  0  0  0
    9.3790   48.5680   44.9970 C   0  0  0  0  0  0  0  0  0  0  0  0
    8.6200   47.9730   46.1430 C   0  0  0  0  0  0  0  0  0  0  0  0
    7.2320   47.9860   46.2020 C   0  0  0  0  0  0  0  0  0  0  0  0
    6.5580   47.3720   47.2480 C   0  0  0  0  0  0  0  0  0  0  0  0
    7.2530   46.7440   48.2660 C   0  0  0  0  0  0  0  0  0  0  0  0
    8.6330   46.7320   48.2190 C   0  0  0  0  0  0  0  0  0  0  0  0
    9.3100   47.3410   47.1750 C   0  0  0  0  0  0  0  0  0  0  0  0
  1 18  1  0  0  0  0
  2  1  1  0  0  0  0
  3 10  1  0  0  0  0
  3  2  1  0  0  0  0
  4  3  1  0  0  0  0
  5  4  1  0  0  0  0
  6  9  1  0  0  0  0
  6  5  1  0  0  0  0
  7  6  1  0  0  0  0
  8  6  1  0  0  0  0
  9 10  1  0  0  0  0
 11 12  2  0  0  0  0
 11  2  2  0  0  0  0
 12 17  1  0  0  0  0
 13 12  1  0  0  0  0
 13 14  1  0  0  0  0
 14 15  2  0  0  0  0
 15 16  1  0  0  0  0
 17  1  1  0  0  0  0
 17 16  2  0  0  0  0
 18 19  1  0  0  0  0
 19 20  2  0  0  0  0
 19 24  1  0  0  0  0
 20 21  1  0  0  0  0
 21 22  2  0  0  0  0
 23 22  1  0  0  0  0
 24 23  2  0  0  0  0
M  END
>  <minimizedAffinity>
-7.02146006

$$$$

 OpenBabel12271914543D

 24 27  0  0  0  0  0  0  0  0999 V2000
    8.2080   45.7360   42.4690 N   0  0  0  0  0  0  0  0  0  0  0  0
    7.9820   45.6780   43.8200 C   0  0  0  0  0  0  0  0  0  0  0  0
    8.2380   46.7560   44.6410 N   0  0  0  0  0  0  0  0  0  0  0  0
    9.5150   46.7560   45.3830 C   0  0  0  0  0  0  0  0  0  0  0  0
    9.4280   47.6880   46.6120 C   0  0  0  0  0  0  0  0  0  0  0  0
    8.3240   47.2520   47.5170 N   0  0  0  0  0  0  0  0  0  0  0  0
    8.1660   47.9760   48.2250 H   0  0  0  0  0  0  0  0  0  0  0  0
    8.5960   46.3920   48.0270 H   0  0  0  0  0  0  0  0  0  0  0  0
    7.0270   46.9700   46.8080 C   0  0  0  0  0  0  0  0  0  0  0  0
    7.0940   47.3700   45.3240 C   0  0  0  0  0  0  0  0  0  0  0  0
    7.4660   44.5240   44.1550 N   0  0  0  0  0  0  0  0  0  0  0  0
    7.3780   43.7780   43.0180 C   0  0  0  0  0  0  0  0  0  0  0  0
    6.9230   42.4740   42.8080 C   0  0  0  0  0  0  0  0  0  0  0  0
    6.9410   41.9450   41.5170 C   0  0  0  0  0  0  0  0  0  0  0  0
    7.4160   42.7010   40.4470 C   0  0  0  0  0  0  0  0  0  0  0  0
    7.8830   43.9930   40.6570 C   0  0  0  0  0  0  0  0  0  0  0  0
    7.8500   44.5240   41.9410 C   0  0  0  0  0  0  0  0  0  0  0  0
    8.8440   46.8240   41.7630 C   0  0  0  0  0  0  0  0  0  0  0  0
    7.8760   47.7900   41.1530 C   0  0  0  0  0  0  0  0  0  0  0  0
    7.3660   48.8740   41.8550 C   0  0  0  0  0  0  0  0  0  0  0  0
    6.5170   49.7850   41.2410 C   0  0  0  0  0  0  0  0  0  0  0  0
    6.1500   49.6270   39.9170 C   0  0  0  0  0  0  0  0  0  0  0  0
    6.6480   48.5490   39.2130 C   0  0  0  0  0  0  0  0  0  0  0  0
    7.4960   47.6390   39.8210 C   0  0  0  0  0  0  0  0  0  0  0  0
  1  2  1  0  0  0  0
  2 11  2  0  0  0  0
  2  3  1  0  0  0  0
  3 10  1  0  0  0  0
  3  4  1  0  0  0  0
  4  5  1  0  0  0  0
  5  6  1  0  0  0  0
  6  8  1  0  0  0  0
  6  7  1  0  0  0  0
  9  6  1  0  0  0  0
 10  9  1  0  0  0  0
 12 11  2  0  0  0  0
 13 12  1  0  0  0  0
 14 13  1  0  0  0  0
 15 16  1  0  0  0  0
 15 14  2  0  0  0  0
 16 17  2  0  0  0  0
 17  1  1  0  0  0  0
 17 12  1  0  0  0  0
 18  1  1  0  0  0  0
 19 18  1  0  0  0  0
 19 20  2  0  0  0  0
 21 20  1  0  0  0  0
 22 21  2  0  0  0  0
 23 24  2  0  0  0  0
 23 22  1  0  0  0  0
 24 19  1  0  0  0  0
M  END
>  <minimizedAffinity>
-6.88179731

$$$$
