
 OpenBabel12271914573D

 32 35  0  0  1  0  0  0  0  0999 V2000
    7.3690   46.4330   44.2110 C   0  0  0  0  0  0  0  0  0  0  0  0
    7.2650   47.7000   43.7350 C   0  0  0  0  0  0  0  0  0  0  0  0
    7.7830   48.8010   44.5100 C   0  0  0  0  0  0  0  0  0  0  0  0
    8.3450   48.4890   45.7320 C   0  0  0  0  0  0  0  0  0  0  0  0
    8.4330   47.2610   46.2280 N   0  0  0  0  0  0  0  0  0  0  0  0
    7.9360   46.2520   45.4430 C   0  0  0  0  0  0  0  0  0  0  0  0
    7.6950   50.1760   44.0390 C   0  0  0  0  0  0  0  0  0  0  0  0
    7.8300   51.2800   44.9020 C   0  0  0  0  0  0  0  0  0  0  0  0
    7.7560   52.6090   44.4300 C   0  0  0  0  0  0  0  0  0  0  0  0
    7.5180   52.7790   43.0540 C   0  0  0  0  0  0  0  0  0  0  0  0
    7.3870   53.8790   42.2820 N   0  0  0  0  0  0  0  0  0  0  0  0
    7.4380   54.8430   42.5650 H   0  0  0  0  0  0  0  0  0  0  0  0
    7.1530   53.6120   40.9570 N   0  0  0  0  0  0  0  0  0  0  0  0
    7.1400   52.2700   40.9300 C   0  0  0  0  0  0  0  0  0  0  0  0
    6.8950   51.4870   39.6710 C   0  0  0  0  0  0  0  0  0  0  0  0
    7.3640   51.7170   42.1890 C   0  0  0  0  0  0  0  0  0  0  0  0
    7.4580   50.4190   42.6780 C   0  0  0  0  0  0  0  0  0  0  0  0
    7.0750   45.2760   43.6430 O   0  0  0  0  0  0  0  0  0  0  0  0
    7.7580   44.2810   42.7640 C   0  0  0  0  0  0  0  0  0  0  0  0
    8.8440   44.9080   41.8960 C   0  0  1  0  0  0  0  0  0  0  0  0
   10.2030   44.6340   42.5110 N   0  0  0  0  0  0  0  0  0  0  0  0
   10.6110   43.7700   42.1360 H   0  0  0  0  0  0  0  0  0  0  0  0
   10.8460   45.3930   42.3000 H   0  0  0  0  0  0  0  0  0  0  0  0
   10.1230   44.5610   43.5180 H   0  0  0  0  0  0  0  0  0  0  0  0
    8.8600   44.4520   40.4260 C   0  0  0  0  0  0  0  0  0  0  0  0
    8.2270   45.5270   39.5810 C   0  0  0  0  0  0  0  0  0  0  0  0
    7.9010   46.7600   40.1700 C   0  0  0  0  0  0  0  0  0  0  0  0
    7.2620   47.7360   39.4150 C   0  0  0  0  0  0  0  0  0  0  0  0
    6.9370   47.4970   38.0910 C   0  0  0  0  0  0  0  0  0  0  0  0
    6.0810   48.8370   37.0810 Br  0  0  0  0  0  0  0  0  0  0  0  0
    7.2350   46.2680   37.5080 C   0  0  0  0  0  0  0  0  0  0  0  0
    7.8870   45.2810   38.2370 C   0  0  0  0  0  0  0  0  0  0  0  0
  1  6  1  0  0  0  0
  2  1  2  0  0  0  0
  2  3  1  0  0  0  0
  3  4  2  0  0  0  0
  4  5  1  0  0  0  0
  6  5  2  0  0  0  0
  7  3  1  0  0  0  0
  7  8  2  0  0  0  0
  9  8  1  0  0  0  0
 10  9  2  0  0  0  0
 11 12  1  0  0  0  0
 11 10  1  0  0  0  0
 13 11  1  0  0  0  0
 14 13  2  0  0  0  0
 14 16  1  0  0  0  0
 15 14  1  0  0  0  0
 16 17  2  0  0  0  0
 16 10  1  0  0  0  0
 17  7  1  0  0  0  0
 18  1  1  0  0  0  0
 19 18  1  0  0  0  0
 20 25  1  6  0  0  0
 20 21  1  0  0  0  0
 20 19  1  0  0  0  0
 21 24  1  0  0  0  0
 22 21  1  0  0  0  0
 23 21  1  0  0  0  0
 26 27  1  0  0  0  0
 26 25  1  0  0  0  0
 28 27  2  0  0  0  0
 29 28  1  0  0  0  0
 30 29  1  0  0  0  0
 31 29  2  0  0  0  0
 31 32  1  0  0  0  0
 32 26  2  0  0  0  0
M  END
>  <minimizedAffinity>
-9.30213165

$$$$

 OpenBabel12271914573D

 32 35  0  0  1  0  0  0  0  0999 V2000
    7.2480   46.2060   43.8820 C   0  0  0  0  0  0  0  0  0  0  0  0
    7.1270   47.3060   43.0950 C   0  0  0  0  0  0  0  0  0  0  0  0
    7.3940   48.6130   43.6440 C   0  0  0  0  0  0  0  0  0  0  0  0
    7.7400   48.6650   44.9790 C   0  0  0  0  0  0  0  0  0  0  0  0
    7.8380   47.6060   45.7740 N   0  0  0  0  0  0  0  0  0  0  0  0
    7.5850   46.3880   45.1960 C   0  0  0  0  0  0  0  0  0  0  0  0
    7.2790   49.8190   42.8370 C   0  0  0  0  0  0  0  0  0  0  0  0
    6.8260   49.7960   41.5050 C   0  0  0  0  0  0  0  0  0  0  0  0
    6.7060   50.9750   40.7370 C   0  0  0  0  0  0  0  0  0  0  0  0
    7.0820   52.1780   41.3620 C   0  0  0  0  0  0  0  0  0  0  0  0
    7.1000   53.4580   40.9360 N   0  0  0  0  0  0  0  0  0  0  0  0
    6.8310   53.8150   40.0340 H   0  0  0  0  0  0  0  0  0  0  0  0
    7.5480   54.3570   41.8700 N   0  0  0  0  0  0  0  0  0  0  0  0
    7.8190   53.5690   42.9220 C   0  0  0  0  0  0  0  0  0  0  0  0
    8.3690   54.1040   44.2150 C   0  0  0  0  0  0  0  0  0  0  0  0
    7.5450   52.2290   42.6590 C   0  0  0  0  0  0  0  0  0  0  0  0
    7.6380   51.0540   43.3970 C   0  0  0  0  0  0  0  0  0  0  0  0
    7.1650   44.9210   43.5810 O   0  0  0  0  0  0  0  0  0  0  0  0
    7.8250   43.9720   42.6360 C   0  0  0  0  0  0  0  0  0  0  0  0
    8.8170   44.6620   41.7030 C   0  0  1  0  0  0  0  0  0  0  0  0
   10.2020   44.6200   42.3200 N   0  0  0  0  0  0  0  0  0  0  0  0
   10.7190   43.7880   42.0120 H   0  0  0  0  0  0  0  0  0  0  0  0
   10.7390   45.4360   42.0390 H   0  0  0  0  0  0  0  0  0  0  0  0
   10.1350   44.6210   43.3310 H   0  0  0  0  0  0  0  0  0  0  0  0
    8.8880   44.0920   40.2760 C   0  0  0  0  0  0  0  0  0  0  0  0
    8.2740   45.0880   39.3270 C   0  0  0  0  0  0  0  0  0  0  0  0
    8.1400   46.4270   39.7310 C   0  0  0  0  0  0  0  0  0  0  0  0
    7.5210   47.3410   38.8870 C   0  0  0  0  0  0  0  0  0  0  0  0
    7.0270   46.9380   37.6590 C   0  0  0  0  0  0  0  0  0  0  0  0
    6.2000   48.1950   36.5250 Br  0  0  0  0  0  0  0  0  0  0  0  0
    7.1340   45.6070   37.2640 C   0  0  0  0  0  0  0  0  0  0  0  0
    7.7620   44.6770   38.0820 C   0  0  0  0  0  0  0  0  0  0  0  0
  1  6  2  0  0  0  0
  2  3  2  0  0  0  0
  2  1  1  0  0  0  0
  3  4  1  0  0  0  0
  4  5  2  0  0  0  0
  6  5  1  0  0  0  0
  7 17  1  0  0  0  0
  7  3  1  0  0  0  0
  8  7  2  0  0  0  0
  9 10  2  0  0  0  0
  9  8  1  0  0  0  0
 10 16  1  0  0  0  0
 11 10  1  0  0  0  0
 11 13  1  0  0  0  0
 12 11  1  0  0  0  0
 13 14  2  0  0  0  0
 14 15  1  0  0  0  0
 16 14  1  0  0  0  0
 16 17  2  0  0  0  0
 18  1  1  0  0  0  0
 19 18  1  0  0  0  0
 20 25  1  6  0  0  0
 20 21  1  0  0  0  0
 20 19  1  0  0  0  0
 21 24  1  0  0  0  0
 22 21  1  0  0  0  0
 23 21  1  0  0  0  0
 26 27  1  0  0  0  0
 26 25  1  0  0  0  0
 28 27  2  0  0  0  0
 29 28  1  0  0  0  0
 30 29  1  0  0  0  0
 31 29  2  0  0  0  0
 31 32  1  0  0  0  0
 32 26  2  0  0  0  0
M  END
>  <minimizedAffinity>
-9.22587299

$$$$

 OpenBabel12271914573D

 32 35  0  0  1  0  0  0  0  0999 V2000
    7.2110   47.1810   38.8190 C   0  0  0  0  0  0  0  0  0  0  0  0
    7.3540   48.2200   39.6820 C   0  0  0  0  0  0  0  0  0  0  0  0
    6.7840   49.5050   39.3580 C   0  0  0  0  0  0  0  0  0  0  0  0
    6.1330   49.6060   38.1440 C   0  0  0  0  0  0  0  0  0  0  0  0
    6.0050   48.6110   37.2740 N   0  0  0  0  0  0  0  0  0  0  0  0
    6.5550   47.4100   37.6390 C   0  0  0  0  0  0  0  0  0  0  0  0
    6.9100   50.6450   40.2540 C   0  0  0  0  0  0  0  0  0  0  0  0
    6.8450   51.9740   39.7970 C   0  0  0  0  0  0  0  0  0  0  0  0
    6.9560   53.0720   40.6790 C   0  0  0  0  0  0  0  0  0  0  0  0
    7.1550   52.7730   42.0390 C   0  0  0  0  0  0  0  0  0  0  0  0
    7.3050   53.5540   43.1300 N   0  0  0  0  0  0  0  0  0  0  0  0
    7.3000   54.5590   43.1780 H   0  0  0  0  0  0  0  0  0  0  0  0
    7.4860   52.8600   44.2990 N   0  0  0  0  0  0  0  0  0  0  0  0
    7.4460   51.5830   43.8860 C   0  0  0  0  0  0  0  0  0  0  0  0
    7.6200   50.4220   44.8240 C   0  0  0  0  0  0  0  0  0  0  0  0
    7.2410   51.4820   42.5120 C   0  0  0  0  0  0  0  0  0  0  0  0
    7.1130   50.4200   41.6240 C   0  0  0  0  0  0  0  0  0  0  0  0
    7.5430   45.9080   38.9450 O   0  0  0  0  0  0  0  0  0  0  0  0
    8.7240   45.1240   39.4130 C   0  0  0  0  0  0  0  0  0  0  0  0
    8.6230   44.7260   40.8830 C   0  0  1  0  0  0  0  0  0  0  0  0
    8.8430   43.2300   41.0160 N   0  0  0  0  0  0  0  0  0  0  0  0
    9.8330   43.0150   41.1800 H   0  0  0  0  0  0  0  0  0  0  0  0
    8.3150   42.8660   41.8050 H   0  0  0  0  0  0  0  0  0  0  0  0
    8.5260   42.7540   40.1800 H   0  0  0  0  0  0  0  0  0  0  0  0
    9.5850   45.4580   41.8330 C   0  0  0  0  0  0  0  0  0  0  0  0
    8.8040   45.9580   43.0200 C   0  0  0  0  0  0  0  0  0  0  0  0
    9.3350   45.7930   44.3100 C   0  0  0  0  0  0  0  0  0  0  0  0
    8.5960   46.1970   45.4150 C   0  0  0  0  0  0  0  0  0  0  0  0
    7.3380   46.7500   45.2530 C   0  0  0  0  0  0  0  0  0  0  0  0
    6.3550   47.3000   46.7640 Br  0  0  0  0  0  0  0  0  0  0  0  0
    6.7950   46.8930   43.9790 C   0  0  0  0  0  0  0  0  0  0  0  0
    7.5200   46.5120   42.8560 C   0  0  0  0  0  0  0  0  0  0  0  0
  1 18  1  0  0  0  0
  1  2  2  0  0  0  0
  3  2  1  0  0  0  0
  3  7  1  0  0  0  0
  4  3  2  0  0  0  0
  5  6  2  0  0  0  0
  5  4  1  0  0  0  0
  6  1  1  0  0  0  0
  7 17  1  0  0  0  0
  8  7  2  0  0  0  0
  8  9  1  0  0  0  0
  9 10  2  0  0  0  0
 10 16  1  0  0  0  0
 10 11  1  0  0  0  0
 11 12  1  0  0  0  0
 11 13  1  0  0  0  0
 14 13  2  0  0  0  0
 14 15  1  0  0  0  0
 16 14  1  0  0  0  0
 17 16  2  0  0  0  0
 18 19  1  0  0  0  0
 20 19  1  6  0  0  0
 20 21  1  0  0  0  0
 20 25  1  0  0  0  0
 21 22  1  0  0  0  0
 21 23  1  0  0  0  0
 24 21  1  0  0  0  0
 25 26  1  0  0  0  0
 26 27  1  0  0  0  0
 27 28  2  0  0  0  0
 29 28  1  0  0  0  0
 29 30  1  0  0  0  0
 31 29  2  0  0  0  0
 32 26  2  0  0  0  0
 32 31  1  0  0  0  0
M  END
>  <minimizedAffinity>
-8.9658432

$$$$

 OpenBabel12271914573D

 32 35  0  0  1  0  0  0  0  0999 V2000
    8.7620   46.1150   42.2820 C   0  0  0  0  0  0  0  0  0  0  0  0
    8.3090   46.6620   43.4380 C   0  0  0  0  0  0  0  0  0  0  0  0
    8.4540   45.9400   44.6780 C   0  0  0  0  0  0  0  0  0  0  0  0
    9.0380   44.6910   44.6040 C   0  0  0  0  0  0  0  0  0  0  0  0
    9.4640   44.1250   43.4800 N   0  0  0  0  0  0  0  0  0  0  0  0
    9.3120   44.8620   42.3340 C   0  0  0  0  0  0  0  0  0  0  0  0
    7.9850   46.4890   45.9420 C   0  0  0  0  0  0  0  0  0  0  0  0
    6.7040   47.0510   46.0920 C   0  0  0  0  0  0  0  0  0  0  0  0
    6.2560   47.5680   47.3280 C   0  0  0  0  0  0  0  0  0  0  0  0
    7.1610   47.5130   48.4020 C   0  0  0  0  0  0  0  0  0  0  0  0
    7.0710   47.9090   49.6890 N   0  0  0  0  0  0  0  0  0  0  0  0
    6.2910   48.3440   50.1500 H   0  0  0  0  0  0  0  0  0  0  0  0
    8.2020   47.6760   50.4300 N   0  0  0  0  0  0  0  0  0  0  0  0
    9.0240   47.1080   49.5340 C   0  0  0  0  0  0  0  0  0  0  0  0
   10.4240   46.6810   49.8740 C   0  0  0  0  0  0  0  0  0  0  0  0
    8.4280   46.9840   48.2810 C   0  0  0  0  0  0  0  0  0  0  0  0
    8.8370   46.4670   47.0570 C   0  0  0  0  0  0  0  0  0  0  0  0
    8.8400   46.6220   41.0630 O   0  0  0  0  0  0  0  0  0  0  0  0
    8.1340   46.4540   39.7580 C   0  0  0  0  0  0  0  0  0  0  0  0
    7.1970   47.6160   39.4410 C   0  0  1  0  0  0  0  0  0  0  0  0
    6.3640   47.2720   38.2200 N   0  0  0  0  0  0  0  0  0  0  0  0
    5.4790   46.8270   38.4890 H   0  0  0  0  0  0  0  0  0  0  0  0
    6.1370   48.1150   37.6990 H   0  0  0  0  0  0  0  0  0  0  0  0
    6.8820   46.6540   37.6060 H   0  0  0  0  0  0  0  0  0  0  0  0
    6.2570   48.0370   40.5830 C   0  0  0  0  0  0  0  0  0  0  0  0
    6.5330   49.4780   40.9280 C   0  0  0  0  0  0  0  0  0  0  0  0
    6.3730   50.4630   39.9390 C   0  0  0  0  0  0  0  0  0  0  0  0
    6.6820   51.7860   40.2300 C   0  0  0  0  0  0  0  0  0  0  0  0
    7.1560   52.1370   41.4810 C   0  0  0  0  0  0  0  0  0  0  0  0
    7.5600   53.9380   41.8590 Br  0  0  0  0  0  0  0  0  0  0  0  0
    7.3410   51.1610   42.4590 C   0  0  0  0  0  0  0  0  0  0  0  0
    7.0250   49.8340   42.1980 C   0  0  0  0  0  0  0  0  0  0  0  0
  1  6  2  0  0  0  0
  1  2  1  0  0  0  0
  2  3  2  0  0  0  0
  3  7  1  0  0  0  0
  4  3  1  0  0  0  0
  5  4  2  0  0  0  0
  6  5  1  0  0  0  0
  7  8  2  0  0  0  0
  7 17  1  0  0  0  0
  8  9  1  0  0  0  0
  9 10  2  0  0  0  0
 10 11  1  0  0  0  0
 11 12  1  0  0  0  0
 11 13  1  0  0  0  0
 14 15  1  0  0  0  0
 14 13  2  0  0  0  0
 16 10  1  0  0  0  0
 16 14  1  0  0  0  0
 17 16  2  0  0  0  0
 18  1  1  0  0  0  0
 19 18  1  0  0  0  0
 20 19  1  1  0  0  0
 20 25  1  0  0  0  0
 21 22  1  0  0  0  0
 21 20  1  0  0  0  0
 23 21  1  0  0  0  0
 24 21  1  0  0  0  0
 25 26  1  0  0  0  0
 26 32  2  0  0  0  0
 27 28  2  0  0  0  0
 27 26  1  0  0  0  0
 28 29  1  0  0  0  0
 29 30  1  0  0  0  0
 29 31  2  0  0  0  0
 32 31  1  0  0  0  0
M  END
>  <minimizedAffinity>
-8.93527126

$$$$

 OpenBabel12271914573D

 32 35  0  0  1  0  0  0  0  0999 V2000
    8.4400   47.4390   46.0170 C   0  0  0  0  0  0  0  0  0  0  0  0
    8.3250   48.5260   45.2110 C   0  0  0  0  0  0  0  0  0  0  0  0
    7.5110   48.4550   44.0220 C   0  0  0  0  0  0  0  0  0  0  0  0
    6.9040   47.2430   43.7580 C   0  0  0  0  0  0  0  0  0  0  0  0
    7.0240   46.1600   44.5170 N   0  0  0  0  0  0  0  0  0  0  0  0
    7.7990   46.2890   45.6410 C   0  0  0  0  0  0  0  0  0  0  0  0
    7.3580   49.5950   43.1310 C   0  0  0  0  0  0  0  0  0  0  0  0
    6.9090   49.4620   41.8040 C   0  0  0  0  0  0  0  0  0  0  0  0
    6.7530   50.5790   40.9540 C   0  0  0  0  0  0  0  0  0  0  0  0
    7.0860   51.8350   41.4910 C   0  0  0  0  0  0  0  0  0  0  0  0
    7.0630   53.0810   40.9740 N   0  0  0  0  0  0  0  0  0  0  0  0
    6.7840   53.3630   40.0490 H   0  0  0  0  0  0  0  0  0  0  0  0
    7.4790   54.0590   41.8410 N   0  0  0  0  0  0  0  0  0  0  0  0
    7.7740   53.3580   42.9470 C   0  0  0  0  0  0  0  0  0  0  0  0
    8.3020   54.0010   44.1980 C   0  0  0  0  0  0  0  0  0  0  0  0
    7.5450   51.9940   42.7810 C   0  0  0  0  0  0  0  0  0  0  0  0
    7.6750   50.8790   43.6010 C   0  0  0  0  0  0  0  0  0  0  0  0
    9.0260   47.2990   47.1930 O   0  0  0  0  0  0  0  0  0  0  0  0
    8.8150   46.4970   48.4350 C   0  0  0  0  0  0  0  0  0  0  0  0
    8.1060   47.2850   49.5320 C   0  0  1  0  0  0  0  0  0  0  0  0
    6.7060   47.6450   49.0710 N   0  0  0  0  0  0  0  0  0  0  0  0
    6.0280   46.9280   49.3530 H   0  0  0  0  0  0  0  0  0  0  0  0
    6.4130   48.5250   49.4870 H   0  0  0  0  0  0  0  0  0  0  0  0
    6.6870   47.7520   48.0630 H   0  0  0  0  0  0  0  0  0  0  0  0
    8.0150   46.5810   50.8970 C   0  0  0  0  0  0  0  0  0  0  0  0
    7.3390   47.5080   51.8740 C   0  0  0  0  0  0  0  0  0  0  0  0
    7.9390   48.7420   52.1770 C   0  0  0  0  0  0  0  0  0  0  0  0
    7.3550   49.5770   53.1210 C   0  0  0  0  0  0  0  0  0  0  0  0
    6.1940   49.1970   53.7710 C   0  0  0  0  0  0  0  0  0  0  0  0
    5.4120   50.3490   55.0400 Br  0  0  0  0  0  0  0  0  0  0  0  0
    5.6080   47.9650   53.4930 C   0  0  0  0  0  0  0  0  0  0  0  0
    6.1630   47.1170   52.5430 C   0  0  0  0  0  0  0  0  0  0  0  0
  1 18  1  0  0  0  0
  2  1  2  0  0  0  0
  3  2  1  0  0  0  0
  4  3  2  0  0  0  0
  4  5  1  0  0  0  0
  5  6  2  0  0  0  0
  6  1  1  0  0  0  0
  7 17  1  0  0  0  0
  7  3  1  0  0  0  0
  8  7  2  0  0  0  0
  9 10  2  0  0  0  0
  9  8  1  0  0  0  0
 10 16  1  0  0  0  0
 11 10  1  0  0  0  0
 11 13  1  0  0  0  0
 12 11  1  0  0  0  0
 13 14  2  0  0  0  0
 14 15  1  0  0  0  0
 16 14  1  0  0  0  0
 16 17  2  0  0  0  0
 18 19  1  0  0  0  0
 20 19  1  6  0  0  0
 20 25  1  0  0  0  0
 21 22  1  0  0  0  0
 21 23  1  0  0  0  0
 21 20  1  0  0  0  0
 24 21  1  0  0  0  0
 25 26  1  0  0  0  0
 26 27  2  0  0  0  0
 26 32  1  0  0  0  0
 27 28  1  0  0  0  0
 28 29  2  0  0  0  0
 29 30  1  0  0  0  0
 31 29  1  0  0  0  0
 32 31  2  0  0  0  0
M  END
>  <minimizedAffinity>
-8.82285023

$$$$

 OpenBabel12271914573D

 32 35  0  0  1  0  0  0  0  0999 V2000
    8.0630   45.9110   39.7440 C   0  0  0  0  0  0  0  0  0  0  0  0
    7.9870   46.5100   40.9600 C   0  0  0  0  0  0  0  0  0  0  0  0
    8.3860   45.7850   42.1420 C   0  0  0  0  0  0  0  0  0  0  0  0
    8.8080   44.4840   41.9580 C   0  0  0  0  0  0  0  0  0  0  0  0
    8.8650   43.8700   40.7820 N   0  0  0  0  0  0  0  0  0  0  0  0
    8.4860   44.6100   39.6920 C   0  0  0  0  0  0  0  0  0  0  0  0
    8.3230   46.3880   43.4660 C   0  0  0  0  0  0  0  0  0  0  0  0
    7.8370   47.6910   43.6800 C   0  0  0  0  0  0  0  0  0  0  0  0
    7.7680   48.2590   44.9710 C   0  0  0  0  0  0  0  0  0  0  0  0
    8.2290   47.4650   46.0370 C   0  0  0  0  0  0  0  0  0  0  0  0
    8.3120   47.6840   47.3660 N   0  0  0  0  0  0  0  0  0  0  0  0
    8.0420   48.5090   47.8750 H   0  0  0  0  0  0  0  0  0  0  0  0
    8.8360   46.6360   48.0780 N   0  0  0  0  0  0  0  0  0  0  0  0
    9.0850   45.7300   47.1190 C   0  0  0  0  0  0  0  0  0  0  0  0
    9.6960   44.3880   47.4100 C   0  0  0  0  0  0  0  0  0  0  0  0
    8.7260   46.1920   45.8550 C   0  0  0  0  0  0  0  0  0  0  0  0
    8.7680   45.6520   44.5750 C   0  0  0  0  0  0  0  0  0  0  0  0
    7.8640   46.4000   38.5320 O   0  0  0  0  0  0  0  0  0  0  0  0
    6.9870   47.4270   37.8940 C   0  0  0  0  0  0  0  0  0  0  0  0
    7.3610   48.8510   38.2950 C   0  0  1  0  0  0  0  0  0  0  0  0
    8.2580   49.4550   37.2300 N   0  0  0  0  0  0  0  0  0  0  0  0
    7.7070   49.9560   36.5230 H   0  0  0  0  0  0  0  0  0  0  0  0
    8.9010   50.1220   37.6480 H   0  0  0  0  0  0  0  0  0  0  0  0
    8.8050   48.7300   36.7810 H   0  0  0  0  0  0  0  0  0  0  0  0
    6.1760   49.8000   38.5450 C   0  0  0  0  0  0  0  0  0  0  0  0
    6.5110   50.6930   39.7110 C   0  0  0  0  0  0  0  0  0  0  0  0
    6.7570   52.0570   39.4820 C   0  0  0  0  0  0  0  0  0  0  0  0
    7.1250   52.8770   40.5410 C   0  0  0  0  0  0  0  0  0  0  0  0
    7.2600   52.3570   41.8160 C   0  0  0  0  0  0  0  0  0  0  0  0
    7.7500   53.4880   43.2420 Br  0  0  0  0  0  0  0  0  0  0  0  0
    7.0410   51.0010   42.0460 C   0  0  0  0  0  0  0  0  0  0  0  0
    6.6580   50.1620   41.0070 C   0  0  0  0  0  0  0  0  0  0  0  0
  1  2  1  0  0  0  0
  2  3  2  0  0  0  0
  3  7  1  0  0  0  0
  4  3  1  0  0  0  0
  5  4  2  0  0  0  0
  6  1  2  0  0  0  0
  6  5  1  0  0  0  0
  7  8  2  0  0  0  0
  7 17  1  0  0  0  0
  8  9  1  0  0  0  0
  9 10  2  0  0  0  0
 10 11  1  0  0  0  0
 11 12  1  0  0  0  0
 11 13  1  0  0  0  0
 14 15  1  0  0  0  0
 14 13  2  0  0  0  0
 16 10  1  0  0  0  0
 16 14  1  0  0  0  0
 17 16  2  0  0  0  0
 18  1  1  0  0  0  0
 19 18  1  0  0  0  0
 20 19  1  6  0  0  0
 20 25  1  0  0  0  0
 21 23  1  0  0  0  0
 21 20  1  0  0  0  0
 22 21  1  0  0  0  0
 24 21  1  0  0  0  0
 25 26  1  0  0  0  0
 26 32  1  0  0  0  0
 27 26  2  0  0  0  0
 27 28  1  0  0  0  0
 28 29  2  0  0  0  0
 29 31  1  0  0  0  0
 29 30  1  0  0  0  0
 32 31  2  0  0  0  0
M  END
>  <minimizedAffinity>
-8.82096004

$$$$

 OpenBabel12271914573D

 32 35  0  0  1  0  0  0  0  0999 V2000
    7.6290   46.8040   39.9180 C   0  0  0  0  0  0  0  0  0  0  0  0
    7.8310   47.6070   40.9950 C   0  0  0  0  0  0  0  0  0  0  0  0
    7.2370   48.9210   41.0300 C   0  0  0  0  0  0  0  0  0  0  0  0
    6.5010   49.2990   39.9250 C   0  0  0  0  0  0  0  0  0  0  0  0
    6.3130   48.5410   38.8510 N   0  0  0  0  0  0  0  0  0  0  0  0
    6.8910   47.2970   38.8770 C   0  0  0  0  0  0  0  0  0  0  0  0
    7.4240   49.8140   42.1640 C   0  0  0  0  0  0  0  0  0  0  0  0
    7.5650   49.3420   43.4820 C   0  0  0  0  0  0  0  0  0  0  0  0
    7.7600   50.2190   44.5720 C   0  0  0  0  0  0  0  0  0  0  0  0
    7.7870   51.5950   44.2800 C   0  0  0  0  0  0  0  0  0  0  0  0
    7.9450   52.6870   45.0560 N   0  0  0  0  0  0  0  0  0  0  0  0
    8.0830   52.7240   46.0520 H   0  0  0  0  0  0  0  0  0  0  0  0
    7.9050   53.8760   44.3720 N   0  0  0  0  0  0  0  0  0  0  0  0
    7.7080   53.4740   43.1060 C   0  0  0  0  0  0  0  0  0  0  0  0
    7.5730   54.4380   41.9620 C   0  0  0  0  0  0  0  0  0  0  0  0
    7.6340   52.0870   43.0010 C   0  0  0  0  0  0  0  0  0  0  0  0
    7.4590   51.2000   41.9450 C   0  0  0  0  0  0  0  0  0  0  0  0
    7.9720   45.5440   39.7100 O   0  0  0  0  0  0  0  0  0  0  0  0
    8.9700   44.5760   40.2520 C   0  0  0  0  0  0  0  0  0  0  0  0
    8.7200   44.2280   41.7170 C   0  0  1  0  0  0  0  0  0  0  0  0
    8.7330   42.7210   41.8870 N   0  0  0  0  0  0  0  0  0  0  0  0
    9.6740   42.3830   42.1220 H   0  0  0  0  0  0  0  0  0  0  0  0
    8.1110   42.4460   42.6420 H   0  0  0  0  0  0  0  0  0  0  0  0
    8.4140   42.2700   41.0380 H   0  0  0  0  0  0  0  0  0  0  0  0
    9.7040   44.8520   42.7210 C   0  0  0  0  0  0  0  0  0  0  0  0
    8.9170   45.4710   43.8470 C   0  0  0  0  0  0  0  0  0  0  0  0
    7.5280   45.6310   43.7060 C   0  0  0  0  0  0  0  0  0  0  0  0
    6.8020   46.2540   44.7130 C   0  0  0  0  0  0  0  0  0  0  0  0
    7.4380   46.7270   45.8470 C   0  0  0  0  0  0  0  0  0  0  0  0
    6.4340   47.5600   47.2060 Br  0  0  0  0  0  0  0  0  0  0  0  0
    8.8180   46.5940   45.9820 C   0  0  0  0  0  0  0  0  0  0  0  0
    9.5650   45.9610   44.9960 C   0  0  0  0  0  0  0  0  0  0  0  0
  1  2  2  0  0  0  0
  2  3  1  0  0  0  0
  3  7  1  0  0  0  0
  4  3  2  0  0  0  0
  5  6  2  0  0  0  0
  5  4  1  0  0  0  0
  6  1  1  0  0  0  0
  7  8  1  0  0  0  0
  8  9  2  0  0  0  0
 10  9  1  0  0  0  0
 10 11  1  0  0  0  0
 11 12  1  0  0  0  0
 13 11  1  0  0  0  0
 14 13  2  0  0  0  0
 15 14  1  0  0  0  0
 16 14  1  0  0  0  0
 16 10  2  0  0  0  0
 17  7  2  0  0  0  0
 17 16  1  0  0  0  0
 18  1  1  0  0  0  0
 18 19  1  0  0  0  0
 20 19  1  6  0  0  0
 20 21  1  0  0  0  0
 20 25  1  0  0  0  0
 21 22  1  0  0  0  0
 21 23  1  0  0  0  0
 24 21  1  0  0  0  0
 25 26  1  0  0  0  0
 26 32  1  0  0  0  0
 27 26  2  0  0  0  0
 27 28  1  0  0  0  0
 28 29  2  0  0  0  0
 29 31  1  0  0  0  0
 29 30  1  0  0  0  0
 32 31  2  0  0  0  0
M  END
>  <minimizedAffinity>
-8.66509151

$$$$

 OpenBabel12271914573D

 32 35  0  0  1  0  0  0  0  0999 V2000
    7.6570   46.6690   40.5150 C   0  0  0  0  0  0  0  0  0  0  0  0
    7.5910   46.9770   41.8360 C   0  0  0  0  0  0  0  0  0  0  0  0
    8.4800   46.3290   42.7690 C   0  0  0  0  0  0  0  0  0  0  0  0
    9.3490   45.3920   42.2470 C   0  0  0  0  0  0  0  0  0  0  0  0
    9.4130   45.0560   40.9640 N   0  0  0  0  0  0  0  0  0  0  0  0
    8.5530   45.7120   40.1210 C   0  0  0  0  0  0  0  0  0  0  0  0
    8.4460   46.6290   44.1930 C   0  0  0  0  0  0  0  0  0  0  0  0
    9.6110   46.6930   44.9790 C   0  0  0  0  0  0  0  0  0  0  0  0
    9.5640   46.9990   46.3570 C   0  0  0  0  0  0  0  0  0  0  0  0
    8.2920   47.2170   46.9150 C   0  0  0  0  0  0  0  0  0  0  0  0
    7.8850   47.5180   48.1660 N   0  0  0  0  0  0  0  0  0  0  0  0
    8.4530   47.6520   48.9860 H   0  0  0  0  0  0  0  0  0  0  0  0
    6.5270   47.6480   48.3010 N   0  0  0  0  0  0  0  0  0  0  0  0
    6.0870   47.4080   47.0560 C   0  0  0  0  0  0  0  0  0  0  0  0
    4.6290   47.4160   46.6940 C   0  0  0  0  0  0  0  0  0  0  0  0
    7.1320   47.1440   46.1730 C   0  0  0  0  0  0  0  0  0  0  0  0
    7.2080   46.8560   44.8150 C   0  0  0  0  0  0  0  0  0  0  0  0
    7.0350   47.2010   39.4770 O   0  0  0  0  0  0  0  0  0  0  0  0
    6.2520   48.4380   39.1840 C   0  0  0  0  0  0  0  0  0  0  0  0
    7.1390   49.6650   38.9890 C   0  0  1  0  0  0  0  0  0  0  0  0
    7.7600   49.6250   37.6050 N   0  0  0  0  0  0  0  0  0  0  0  0
    7.1760   50.1230   36.9240 H   0  0  0  0  0  0  0  0  0  0  0  0
    8.6720   50.0740   37.6150 H   0  0  0  0  0  0  0  0  0  0  0  0
    7.8850   48.6650   37.3060 H   0  0  0  0  0  0  0  0  0  0  0  0
    6.4410   51.0220   39.1840 C   0  0  0  0  0  0  0  0  0  0  0  0
    6.8760   51.6030   40.5040 C   0  0  0  0  0  0  0  0  0  0  0  0
    6.8390   50.7970   41.6540 C   0  0  0  0  0  0  0  0  0  0  0  0
    7.1810   51.3410   42.8860 C   0  0  0  0  0  0  0  0  0  0  0  0
    7.5480   52.6710   42.9880 C   0  0  0  0  0  0  0  0  0  0  0  0
    8.0180   53.3870   44.6670 Br  0  0  0  0  0  0  0  0  0  0  0  0
    7.5630   53.4820   41.8560 C   0  0  0  0  0  0  0  0  0  0  0  0
    7.2390   52.9590   40.6100 C   0  0  0  0  0  0  0  0  0  0  0  0
  1  2  1  0  0  0  0
  2  3  2  0  0  0  0
  3  7  1  0  0  0  0
  4  3  1  0  0  0  0
  5  4  2  0  0  0  0
  6  1  2  0  0  0  0
  6  5  1  0  0  0  0
  7 17  2  0  0  0  0
  7  8  1  0  0  0  0
  8  9  2  0  0  0  0
  9 10  1  0  0  0  0
 10 11  1  0  0  0  0
 11 13  1  0  0  0  0
 11 12  1  0  0  0  0
 14 13  2  0  0  0  0
 15 14  1  0  0  0  0
 16 10  2  0  0  0  0
 16 14  1  0  0  0  0
 17 16  1  0  0  0  0
 18  1  1  0  0  0  0
 19 18  1  0  0  0  0
 20 25  1  6  0  0  0
 20 19  1  0  0  0  0
 21 23  1  0  0  0  0
 21 20  1  0  0  0  0
 22 21  1  0  0  0  0
 24 21  1  0  0  0  0
 25 26  1  0  0  0  0
 26 32  2  0  0  0  0
 26 27  1  0  0  0  0
 27 28  2  0  0  0  0
 28 29  1  0  0  0  0
 29 30  1  0  0  0  0
 31 29  2  0  0  0  0
 32 31  1  0  0  0  0
M  END
>  <minimizedAffinity>
-8.65151215

$$$$

 OpenBabel12271914573D

 32 35  0  0  1  0  0  0  0  0999 V2000
    7.4420   46.9560   44.7470 C   0  0  0  0  0  0  0  0  0  0  0  0
    7.3630   48.2010   44.2110 C   0  0  0  0  0  0  0  0  0  0  0  0
    7.2450   48.3600   42.7820 C   0  0  0  0  0  0  0  0  0  0  0  0
    7.2450   47.2040   42.0280 C   0  0  0  0  0  0  0  0  0  0  0  0
    7.3480   45.9780   42.5280 N   0  0  0  0  0  0  0  0  0  0  0  0
    7.4450   45.8860   43.8930 C   0  0  0  0  0  0  0  0  0  0  0  0
    7.1550   49.6740   42.1640 C   0  0  0  0  0  0  0  0  0  0  0  0
    6.7410   49.8560   40.8310 C   0  0  0  0  0  0  0  0  0  0  0  0
    6.6460   51.1390   40.2480 C   0  0  0  0  0  0  0  0  0  0  0  0
    7.0060   52.2300   41.0580 C   0  0  0  0  0  0  0  0  0  0  0  0
    7.0380   53.5600   40.8310 N   0  0  0  0  0  0  0  0  0  0  0  0
    6.7960   54.0510   39.9870 H   0  0  0  0  0  0  0  0  0  0  0  0
    7.4620   54.3050   41.9030 N   0  0  0  0  0  0  0  0  0  0  0  0
    7.7010   53.3650   42.8310 C   0  0  0  0  0  0  0  0  0  0  0  0
    8.2140   53.6950   44.2050 C   0  0  0  0  0  0  0  0  0  0  0  0
    7.4320   52.0820   42.3600 C   0  0  0  0  0  0  0  0  0  0  0  0
    7.5010   50.8090   42.9150 C   0  0  0  0  0  0  0  0  0  0  0  0
    7.4430   46.5620   46.0090 O   0  0  0  0  0  0  0  0  0  0  0  0
    7.2530   47.1860   47.3520 C   0  0  0  0  0  0  0  0  0  0  0  0
    8.0180   46.4590   48.4540 C   0  0  1  0  0  0  0  0  0  0  0  0
    8.3550   45.0540   47.9910 N   0  0  0  0  0  0  0  0  0  0  0  0
    9.2760   45.0250   47.5380 H   0  0  0  0  0  0  0  0  0  0  0  0
    8.3830   44.4180   48.7840 H   0  0  0  0  0  0  0  0  0  0  0  0
    7.6490   44.7200   47.3460 H   0  0  0  0  0  0  0  0  0  0  0  0
    9.3070   47.1500   48.9310 C   0  0  0  0  0  0  0  0  0  0  0  0
    9.2670   47.2650   50.4320 C   0  0  0  0  0  0  0  0  0  0  0  0
   10.4540   47.5420   51.1320 C   0  0  0  0  0  0  0  0  0  0  0  0
   10.4380   47.5910   52.5200 C   0  0  0  0  0  0  0  0  0  0  0  0
    9.2660   47.3580   53.2170 C   0  0  0  0  0  0  0  0  0  0  0  0
    9.2640   47.4380   55.0990 Br  0  0  0  0  0  0  0  0  0  0  0  0
    8.0920   47.0580   52.5310 C   0  0  0  0  0  0  0  0  0  0  0  0
    8.0760   47.0180   51.1420 C   0  0  0  0  0  0  0  0  0  0  0  0
  1 18  1  0  0  0  0
  2  1  1  0  0  0  0
  3  2  2  0  0  0  0
  4  5  2  0  0  0  0
  4  3  1  0  0  0  0
  5  6  1  0  0  0  0
  6  1  2  0  0  0  0
  7  3  1  0  0  0  0
  7 17  2  0  0  0  0
  8  7  1  0  0  0  0
  9  8  2  0  0  0  0
  9 10  1  0  0  0  0
 10 16  2  0  0  0  0
 11 10  1  0  0  0  0
 11 13  1  0  0  0  0
 12 11  1  0  0  0  0
 13 14  2  0  0  0  0
 14 15  1  0  0  0  0
 16 14  1  0  0  0  0
 16 17  1  0  0  0  0
 18 19  1  0  0  0  0
 20 19  1  6  0  0  0
 20 25  1  0  0  0  0
 21 20  1  0  0  0  0
 21 23  1  0  0  0  0
 22 21  1  0  0  0  0
 24 21  1  0  0  0  0
 25 26  1  0  0  0  0
 26 27  2  0  0  0  0
 26 32  1  0  0  0  0
 27 28  1  0  0  0  0
 28 29  2  0  0  0  0
 29 30  1  0  0  0  0
 31 29  1  0  0  0  0
 32 31  2  0  0  0  0
M  END
>  <minimizedAffinity>
-8.49037647

$$$$
