
 OpenBabel12271915083D

 27 29  0  0  1  0  0  0  0  0999 V2000
    6.8320   47.8830   41.1440 C   0  0  1  0  0  0  0  0  0  0  0  0
    7.8790   47.4560   40.2110 N   0  0  0  0  0  0  0  0  0  0  0  0
    8.8390   47.8490   40.4900 H   0  0  0  0  0  0  0  0  0  0  0  0
    8.0250   46.0640   40.4450 O   0  0  0  0  0  0  0  0  0  0  0  0
    7.8570   45.7940   41.8330 C   0  0  2  0  0  0  0  0  0  0  0  0
    9.2720   45.9190   42.4900 C   0  0  1  0  0  0  0  0  0  0  0  0
    9.3370   45.2950   43.9230 C   0  0  2  0  0  0  0  0  0  0  0  0
    8.1990   44.2500   44.1930 C   0  0  1  0  0  0  0  0  0  0  0  0
    7.8320   43.5680   42.8580 C   0  0  2  0  0  0  0  0  0  0  0  0
    7.2300   44.5220   41.9650 O   0  0  0  0  0  0  0  0  0  0  0  0
    6.9030   46.8750   42.3070 C   0  0  0  0  0  0  0  0  0  0  0  0
    6.8920   49.3440   41.5340 C   0  0  0  0  0  0  0  0  0  0  0  0
    6.4780   50.3180   40.5730 C   0  0  0  0  0  0  0  0  0  0  0  0
    6.5760   51.6930   40.8560 C   0  0  0  0  0  0  0  0  0  0  0  0
    7.0640   52.1320   42.0780 C   0  0  0  0  0  0  0  0  0  0  0  0
    7.1380   53.5950   42.3950 C   0  0  0  0  0  0  0  0  0  0  0  0
    7.4130   51.1880   43.0440 C   0  0  0  0  0  0  0  0  0  0  0  0
    7.3070   49.8090   42.7830 C   0  0  0  0  0  0  0  0  0  0  0  0
    9.2900   46.1800   45.0310 O   0  0  0  0  0  0  0  0  0  0  0  0
    9.5300   47.0840   44.7530 H   0  0  0  0  0  0  0  0  0  0  0  0
   10.2640   45.2210   41.7100 O   0  0  0  0  0  0  0  0  0  0  0  0
    9.9470   45.2700   40.7660 H   0  0  0  0  0  0  0  0  0  0  0  0
    8.6320   43.2880   45.1790 O   0  0  0  0  0  0  0  0  0  0  0  0
    9.1890   43.8260   45.8360 H   0  0  0  0  0  0  0  0  0  0  0  0
    6.9360   42.3030   42.9190 C   0  0  0  0  0  0  0  0  0  0  0  0
    6.2950   42.1020   44.1580 O   0  0  0  0  0  0  0  0  0  0  0  0
    6.4260   42.9700   44.6860 H   0  0  0  0  0  0  0  0  0  0  0  0
  1 12  1  1  0  0  0
  1 11  1  0  0  0  0
  2  4  1  0  0  0  0
  2  3  1  0  0  0  0
  2  1  1  0  0  0  0
  4  5  1  0  0  0  0
  5 10  1  0  0  0  0
  5 11  1  1  0  0  0
  6  5  1  6  0  0  0
  6  7  1  0  0  0  0
  7  8  1  0  0  0  0
  7 19  1  1  0  0  0
  8 23  1  1  0  0  0
  9 25  1  1  0  0  0
  9  8  1  0  0  0  0
 10  9  1  0  0  0  0
 12 18  2  0  0  0  0
 13 14  2  0  0  0  0
 13 12  1  0  0  0  0
 14 15  1  0  0  0  0
 15 16  1  0  0  0  0
 15 17  2  0  0  0  0
 18 17  1  0  0  0  0
 20 19  1  0  0  0  0
 21  6  1  0  0  0  0
 22 21  1  0  0  0  0
 23 24  1  0  0  0  0
 25 26  1  0  0  0  0
 26 27  1  0  0  0  0
M  END
>  <minimizedAffinity>
-8.76052189

$$$$

 OpenBabel12271915083D

 27 29  0  0  1  0  0  0  0  0999 V2000
    8.0910   50.2070   44.1760 C   0  0  1  0  0  0  0  0  0  0  0  0
    7.1060   50.2310   45.2610 N   0  0  0  0  0  0  0  0  0  0  0  0
    6.1560   49.8440   44.9390 H   0  0  0  0  0  0  0  0  0  0  0  0
    7.5550   49.2460   46.1780 O   0  0  0  0  0  0  0  0  0  0  0  0
    8.1180   48.1510   45.4640 C   0  0  2  0  0  0  0  0  0  0  0  0
    6.9460   47.1550   45.1720 C   0  0  1  0  0  0  0  0  0  0  0  0
    7.4450   45.7380   44.7310 C   0  0  2  0  0  0  0  0  0  0  0  0
    8.9230   45.4430   45.1610 C   0  0  1  0  0  0  0  0  0  0  0  0
    9.2140   46.2050   46.4720 C   0  0  2  0  0  0  0  0  0  0  0  0
    9.1930   47.6230   46.2340 O   0  0  0  0  0  0  0  0  0  0  0  0
    8.6690   48.7800   44.1970 C   0  0  0  0  0  0  0  0  0  0  0  0
    7.5680   50.6870   42.8390 C   0  0  0  0  0  0  0  0  0  0  0  0
    6.9610   49.7310   41.9670 C   0  0  0  0  0  0  0  0  0  0  0  0
    6.5180   50.1070   40.6860 C   0  0  0  0  0  0  0  0  0  0  0  0
    6.6510   51.4160   40.2460 C   0  0  0  0  0  0  0  0  0  0  0  0
    6.1500   51.8270   38.8940 C   0  0  0  0  0  0  0  0  0  0  0  0
    7.1870   52.3690   41.1130 C   0  0  0  0  0  0  0  0  0  0  0  0
    7.6210   52.0120   42.4040 C   0  0  0  0  0  0  0  0  0  0  0  0
    7.3970   45.4240   43.3480 O   0  0  0  0  0  0  0  0  0  0  0  0
    6.7770   46.0180   42.8870 H   0  0  0  0  0  0  0  0  0  0  0  0
    6.1470   46.9420   46.3530 O   0  0  0  0  0  0  0  0  0  0  0  0
    6.2020   47.7910   46.8730 H   0  0  0  0  0  0  0  0  0  0  0  0
    9.1200   44.0210   45.3190 O   0  0  0  0  0  0  0  0  0  0  0  0
    8.5620   43.6020   44.5810 H   0  0  0  0  0  0  0  0  0  0  0  0
   10.5130   45.8440   47.2400 C   0  0  0  0  0  0  0  0  0  0  0  0
   11.5000   46.8500   47.2210 O   0  0  0  0  0  0  0  0  0  0  0  0
   11.0400   47.6880   46.8520 H   0  0  0  0  0  0  0  0  0  0  0  0
  1 12  1  6  0  0  0
  1 11  1  0  0  0  0
  1  2  1  0  0  0  0
  2  4  1  0  0  0  0
  3  2  1  0  0  0  0
  5 11  1  6  0  0  0
  5  4  1  0  0  0  0
  5 10  1  0  0  0  0
  6  5  1  1  0  0  0
  6 21  1  0  0  0  0
  7 19  1  6  0  0  0
  7  8  1  0  0  0  0
  7  6  1  0  0  0  0
  8 23  1  1  0  0  0
  8  9  1  0  0  0  0
  9 25  1  6  0  0  0
 10  9  1  0  0  0  0
 13 12  2  0  0  0  0
 14 13  1  0  0  0  0
 15 14  2  0  0  0  0
 15 17  1  0  0  0  0
 16 15  1  0  0  0  0
 17 18  2  0  0  0  0
 18 12  1  0  0  0  0
 20 19  1  0  0  0  0
 21 22  1  0  0  0  0
 24 23  1  0  0  0  0
 26 25  1  0  0  0  0
 27 26  1  0  0  0  0
M  END
>  <minimizedAffinity>
-8.24025249

$$$$

 OpenBabel12271915083D

 27 29  0  0  1  0  0  0  0  0999 V2000
    9.3680   48.1950   44.7860 C   0  0  1  0  0  0  0  0  0  0  0  0
   10.7380   48.4800   45.2220 N   0  0  0  0  0  0  0  0  0  0  0  0
   10.7650   49.2810   45.9390 H   0  0  0  0  0  0  0  0  0  0  0  0
   11.1130   47.3500   45.9940 O   0  0  0  0  0  0  0  0  0  0  0  0
    9.9880   46.8790   46.7280 C   0  0  2  0  0  0  0  0  0  0  0  0
    9.9890   47.6470   48.0930 C   0  0  1  0  0  0  0  0  0  0  0  0
    9.0530   46.9920   49.1620 C   0  0  2  0  0  0  0  0  0  0  0  0
    8.7340   45.4860   48.8630 C   0  0  1  0  0  0  0  0  0  0  0  0
    9.9390   44.8660   48.1250 C   0  0  2  0  0  0  0  0  0  0  0  0
   10.0810   45.4620   46.8230 O   0  0  0  0  0  0  0  0  0  0  0  0
    8.7990   47.2480   45.8600 C   0  0  0  0  0  0  0  0  0  0  0  0
    8.5350   49.4220   44.4810 C   0  0  0  0  0  0  0  0  0  0  0  0
    8.4660   49.8720   43.1260 C   0  0  0  0  0  0  0  0  0  0  0  0
    7.7620   51.0450   42.7940 C   0  0  0  0  0  0  0  0  0  0  0  0
    7.1100   51.7810   43.7730 C   0  0  0  0  0  0  0  0  0  0  0  0
    6.3310   53.0110   43.4170 C   0  0  0  0  0  0  0  0  0  0  0  0
    7.1210   51.3150   45.0880 C   0  0  0  0  0  0  0  0  0  0  0  0
    7.8080   50.1360   45.4340 C   0  0  0  0  0  0  0  0  0  0  0  0
    7.7890   47.5950   49.3900 O   0  0  0  0  0  0  0  0  0  0  0  0
    7.7900   48.5160   49.0690 H   0  0  0  0  0  0  0  0  0  0  0  0
   11.3080   47.6570   48.6750 O   0  0  0  0  0  0  0  0  0  0  0  0
   11.9420   47.6390   47.9070 H   0  0  0  0  0  0  0  0  0  0  0  0
    8.4470   44.7860   50.0930 O   0  0  0  0  0  0  0  0  0  0  0  0
    7.9380   45.4580   50.6580 H   0  0  0  0  0  0  0  0  0  0  0  0
    9.9750   43.3220   47.9770 C   0  0  0  0  0  0  0  0  0  0  0  0
    8.7070   42.7170   47.8750 O   0  0  0  0  0  0  0  0  0  0  0  0
    8.0410   43.4810   47.7270 H   0  0  0  0  0  0  0  0  0  0  0  0
  1 12  1  1  0  0  0
  1  2  1  0  0  0  0
  1 11  1  0  0  0  0
  2  3  1  0  0  0  0
  2  4  1  0  0  0  0
  4  5  1  0  0  0  0
  5 11  1  6  0  0  0
  5 10  1  0  0  0  0
  6  5  1  6  0  0  0
  6 21  1  0  0  0  0
  6  7  1  0  0  0  0
  7 19  1  6  0  0  0
  8  7  1  0  0  0  0
  8 23  1  1  0  0  0
  9 25  1  6  0  0  0
  9  8  1  0  0  0  0
 10  9  1  0  0  0  0
 12 18  2  0  0  0  0
 13 12  1  0  0  0  0
 14 13  2  0  0  0  0
 14 15  1  0  0  0  0
 15 17  2  0  0  0  0
 16 15  1  0  0  0  0
 17 18  1  0  0  0  0
 20 19  1  0  0  0  0
 22 21  1  0  0  0  0
 23 24  1  0  0  0  0
 26 25  1  0  0  0  0
 27 26  1  0  0  0  0
M  END
>  <minimizedAffinity>
-8.19971085

$$$$

 OpenBabel12271915083D

 27 29  0  0  1  0  0  0  0  0999 V2000
    6.6180   47.9450   43.7800 C   0  0  1  0  0  0  0  0  0  0  0  0
    6.8850   46.5710   43.3450 N   0  0  0  0  0  0  0  0  0  0  0  0
    7.7420   46.5240   42.6960 H   0  0  0  0  0  0  0  0  0  0  0  0
    7.3350   45.9040   44.5130 O   0  0  0  0  0  0  0  0  0  0  0  0
    8.1190   46.7950   45.2990 C   0  0  2  0  0  0  0  0  0  0  0  0
    9.5980   46.6460   44.8050 C   0  0  1  0  0  0  0  0  0  0  0  0
   10.6370   47.2650   45.7980 C   0  0  2  0  0  0  0  0  0  0  0  0
   10.0820   47.4210   47.2560 C   0  0  1  0  0  0  0  0  0  0  0  0
    9.0510   46.3010   47.5110 C   0  0  2  0  0  0  0  0  0  0  0  0
    7.8980   46.4890   46.6720 O   0  0  0  0  0  0  0  0  0  0  0  0
    7.5440   48.1650   44.9910 C   0  0  0  0  0  0  0  0  0  0  0  0
    6.7100   48.9840   42.6820 C   0  0  0  0  0  0  0  0  0  0  0  0
    7.2060   50.2820   43.0190 C   0  0  0  0  0  0  0  0  0  0  0  0
    7.2510   51.3060   42.0550 C   0  0  0  0  0  0  0  0  0  0  0  0
    6.8270   51.0740   40.7550 C   0  0  0  0  0  0  0  0  0  0  0  0
    6.9050   52.1530   39.7170 C   0  0  0  0  0  0  0  0  0  0  0  0
    6.3990   49.7930   40.4020 C   0  0  0  0  0  0  0  0  0  0  0  0
    6.3620   48.7550   41.3500 C   0  0  0  0  0  0  0  0  0  0  0  0
   11.1800   48.5360   45.4770 O   0  0  0  0  0  0  0  0  0  0  0  0
   11.0640   48.7240   44.5260 H   0  0  0  0  0  0  0  0  0  0  0  0
    9.9570   45.2570   44.6730 O   0  0  0  0  0  0  0  0  0  0  0  0
    9.1130   44.7810   44.4390 H   0  0  0  0  0  0  0  0  0  0  0  0
   11.1660   47.3720   48.2080 O   0  0  0  0  0  0  0  0  0  0  0  0
   11.9320   47.8550   47.7500 H   0  0  0  0  0  0  0  0  0  0  0  0
    8.5780   46.0770   48.9710 C   0  0  0  0  0  0  0  0  0  0  0  0
    8.5080   47.2510   49.7470 O   0  0  0  0  0  0  0  0  0  0  0  0
    8.6080   48.0300   49.0890 H   0  0  0  0  0  0  0  0  0  0  0  0
  1 12  1  6  0  0  0
  1 11  1  0  0  0  0
  2  1  1  0  0  0  0
  2  4  1  0  0  0  0
  3  2  1  0  0  0  0
  4  5  1  0  0  0  0
  5 11  1  6  0  0  0
  5 10  1  0  0  0  0
  6  5  1  1  0  0  0
  6  7  1  0  0  0  0
  7 19  1  6  0  0  0
  7  8  1  0  0  0  0
  8  9  1  0  0  0  0
  8 23  1  1  0  0  0
  9 25  1  1  0  0  0
 10  9  1  0  0  0  0
 12 13  1  0  0  0  0
 14 13  2  0  0  0  0
 15 14  1  0  0  0  0
 16 15  1  0  0  0  0
 17 15  2  0  0  0  0
 17 18  1  0  0  0  0
 18 12  2  0  0  0  0
 20 19  1  0  0  0  0
 21  6  1  0  0  0  0
 22 21  1  0  0  0  0
 24 23  1  0  0  0  0
 25 26  1  0  0  0  0
 27 26  1  0  0  0  0
M  END
>  <minimizedAffinity>
-8.09331036

$$$$

 OpenBabel12271915083D

 27 29  0  0  1  0  0  0  0  0999 V2000
    9.9430   46.8210   45.7210 C   0  0  1  0  0  0  0  0  0  0  0  0
   11.2490   47.3390   46.1370 N   0  0  0  0  0  0  0  0  0  0  0  0
   11.1790   48.3560   46.4800 H   0  0  0  0  0  0  0  0  0  0  0  0
   11.5600   46.6240   47.3220 O   0  0  0  0  0  0  0  0  0  0  0  0
   10.3700   46.4060   48.0730 C   0  0  2  0  0  0  0  0  0  0  0  0
   10.2020   47.6420   49.0190 C   0  0  1  0  0  0  0  0  0  0  0  0
    9.1660   47.3960   50.1660 C   0  0  2  0  0  0  0  0  0  0  0  0
    8.9150   45.8750   50.4540 C   0  0  1  0  0  0  0  0  0  0  0  0
   10.2080   45.0950   50.1360 C   0  0  2  0  0  0  0  0  0  0  0  0
   10.4810   45.1450   48.7250 O   0  0  0  0  0  0  0  0  0  0  0  0
    9.2780   46.3330   47.0210 C   0  0  0  0  0  0  0  0  0  0  0  0
    9.1240   47.7780   44.8810 C   0  0  0  0  0  0  0  0  0  0  0  0
    9.0630   47.5570   43.4690 C   0  0  0  0  0  0  0  0  0  0  0  0
    8.3720   48.4520   42.6320 C   0  0  0  0  0  0  0  0  0  0  0  0
    7.7250   49.5600   43.1590 C   0  0  0  0  0  0  0  0  0  0  0  0
    6.9600   50.4970   42.2730 C   0  0  0  0  0  0  0  0  0  0  0  0
    7.7280   49.7500   44.5410 C   0  0  0  0  0  0  0  0  0  0  0  0
    8.4020   48.8560   45.3940 C   0  0  0  0  0  0  0  0  0  0  0  0
    7.8730   47.9590   50.0180 O   0  0  0  0  0  0  0  0  0  0  0  0
    7.8900   48.6810   49.3630 H   0  0  0  0  0  0  0  0  0  0  0  0
   11.4470   47.9600   49.6730 O   0  0  0  0  0  0  0  0  0  0  0  0
   12.1640   47.6860   49.0370 H   0  0  0  0  0  0  0  0  0  0  0  0
    8.5080   45.6910   51.8270 O   0  0  0  0  0  0  0  0  0  0  0  0
    7.9240   46.4960   52.0320 H   0  0  0  0  0  0  0  0  0  0  0  0
   10.2930   43.6200   50.6120 C   0  0  0  0  0  0  0  0  0  0  0  0
    9.0430   43.0040   50.8270 O   0  0  0  0  0  0  0  0  0  0  0  0
    8.3450   43.6370   50.4240 H   0  0  0  0  0  0  0  0  0  0  0  0
  1 12  1  1  0  0  0
  1  2  1  0  0  0  0
  1 11  1  0  0  0  0
  2  3  1  0  0  0  0
  2  4  1  0  0  0  0
  4  5  1  0  0  0  0
  5 11  1  6  0  0  0
  5 10  1  0  0  0  0
  6  5  1  1  0  0  0
  6 21  1  0  0  0  0
  6  7  1  0  0  0  0
  7 19  1  6  0  0  0
  7  8  1  0  0  0  0
  8 23  1  1  0  0  0
  9  8  1  0  0  0  0
  9 25  1  6  0  0  0
 10  9  1  0  0  0  0
 12 18  1  0  0  0  0
 13 12  2  0  0  0  0
 14 15  2  0  0  0  0
 14 13  1  0  0  0  0
 15 17  1  0  0  0  0
 16 15  1  0  0  0  0
 17 18  2  0  0  0  0
 20 19  1  0  0  0  0
 22 21  1  0  0  0  0
 23 24  1  0  0  0  0
 25 26  1  0  0  0  0
 27 26  1  0  0  0  0
M  END
>  <minimizedAffinity>
-8.06760979

$$$$

 OpenBabel12271915083D

 27 29  0  0  1  0  0  0  0  0999 V2000
    7.5160   46.8760   48.5020 C   0  0  1  0  0  0  0  0  0  0  0  0
    6.4870   47.8220   48.0630 N   0  0  0  0  0  0  0  0  0  0  0  0
    6.8720   48.8240   48.0050 H   0  0  0  0  0  0  0  0  0  0  0  0
    6.2500   47.4940   46.7030 O   0  0  0  0  0  0  0  0  0  0  0  0
    7.4740   47.1070   46.0870 C   0  0  2  0  0  0  0  0  0  0  0  0
    8.1250   48.4140   45.5210 C   0  0  1  0  0  0  0  0  0  0  0  0
    9.2740   48.1280   44.4980 C   0  0  2  0  0  0  0  0  0  0  0  0
    9.1950   46.6960   43.8640 C   0  0  1  0  0  0  0  0  0  0  0  0
    7.7130   46.2700   43.7960 C   0  0  2  0  0  0  0  0  0  0  0  0
    7.1870   46.0980   45.1230 O   0  0  0  0  0  0  0  0  0  0  0  0
    8.2840   46.5030   47.2200 C   0  0  0  0  0  0  0  0  0  0  0  0
    8.3630   47.3570   49.6610 C   0  0  0  0  0  0  0  0  0  0  0  0
    9.7840   47.2350   49.5570 C   0  0  0  0  0  0  0  0  0  0  0  0
   10.6160   47.6040   50.6300 C   0  0  0  0  0  0  0  0  0  0  0  0
   10.0770   48.1040   51.8060 C   0  0  0  0  0  0  0  0  0  0  0  0
   10.9630   48.5300   52.9370 C   0  0  0  0  0  0  0  0  0  0  0  0
    8.6960   48.2840   51.8930 C   0  0  0  0  0  0  0  0  0  0  0  0
    7.8510   47.9340   50.8230 C   0  0  0  0  0  0  0  0  0  0  0  0
   10.6110   48.2520   44.9560 O   0  0  0  0  0  0  0  0  0  0  0  0
   10.6430   48.7930   45.7660 H   0  0  0  0  0  0  0  0  0  0  0  0
    7.1520   49.2060   44.8120 O   0  0  0  0  0  0  0  0  0  0  0  0
    6.2790   49.0210   45.2550 H   0  0  0  0  0  0  0  0  0  0  0  0
    9.8070   46.6970   42.5570 O   0  0  0  0  0  0  0  0  0  0  0  0
   10.6000   47.3250   42.6450 H   0  0  0  0  0  0  0  0  0  0  0  0
    7.3630   45.0170   42.9510 C   0  0  0  0  0  0  0  0  0  0  0  0
    7.0640   43.8680   43.7090 O   0  0  0  0  0  0  0  0  0  0  0  0
    6.9600   44.1890   44.6770 H   0  0  0  0  0  0  0  0  0  0  0  0
  1 12  1  1  0  0  0
  2  1  1  0  0  0  0
  3  2  1  0  0  0  0
  4  2  1  0  0  0  0
  5  4  1  0  0  0  0
  5 11  1  1  0  0  0
  6  5  1  6  0  0  0
  7 19  1  1  0  0  0
  7  6  1  0  0  0  0
  8 23  1  6  0  0  0
  8  7  1  0  0  0  0
  9 25  1  6  0  0  0
  9  8  1  0  0  0  0
  9 10  1  0  0  0  0
 10  5  1  0  0  0  0
 11  1  1  0  0  0  0
 12 18  1  0  0  0  0
 13 12  2  0  0  0  0
 13 14  1  0  0  0  0
 14 15  2  0  0  0  0
 15 17  1  0  0  0  0
 15 16  1  0  0  0  0
 18 17  2  0  0  0  0
 19 20  1  0  0  0  0
 21 22  1  0  0  0  0
 21  6  1  0  0  0  0
 23 24  1  0  0  0  0
 25 26  1  0  0  0  0
 26 27  1  0  0  0  0
M  END
>  <minimizedAffinity>
-7.6140871

$$$$

 OpenBabel12271915083D

 27 29  0  0  1  0  0  0  0  0999 V2000
    7.2890   46.5010   39.7070 C   0  0  1  0  0  0  0  0  0  0  0  0
    8.6000   46.0290   39.2510 N   0  0  0  0  0  0  0  0  0  0  0  0
    9.3860   46.6960   39.5550 H   0  0  0  0  0  0  0  0  0  0  0  0
    8.8520   44.8660   40.0230 O   0  0  0  0  0  0  0  0  0  0  0  0
    8.3420   45.0470   41.3390 C   0  0  2  0  0  0  0  0  0  0  0  0
    9.4910   45.6960   42.1820 C   0  0  1  0  0  0  0  0  0  0  0  0
    9.2350   45.6200   43.7240 C   0  0  2  0  0  0  0  0  0  0  0  0
    8.2110   44.5020   44.1240 C   0  0  1  0  0  0  0  0  0  0  0  0
    8.3190   43.3480   43.1050 C   0  0  2  0  0  0  0  0  0  0  0  0
    7.8720   43.7880   41.8110 O   0  0  0  0  0  0  0  0  0  0  0  0
    7.1630   45.9850   41.1530 C   0  0  0  0  0  0  0  0  0  0  0  0
    7.0510   47.9840   39.5140 C   0  0  0  0  0  0  0  0  0  0  0  0
    6.7010   48.7680   40.6570 C   0  0  0  0  0  0  0  0  0  0  0  0
    6.4020   50.1360   40.5250 C   0  0  0  0  0  0  0  0  0  0  0  0
    6.4530   50.7560   39.2850 C   0  0  0  0  0  0  0  0  0  0  0  0
    6.1690   52.2220   39.1460 C   0  0  0  0  0  0  0  0  0  0  0  0
    6.8530   50.0130   38.1740 C   0  0  0  0  0  0  0  0  0  0  0  0
    7.1690   48.6470   38.2910 C   0  0  0  0  0  0  0  0  0  0  0  0
    8.7690   46.7920   44.3730 O   0  0  0  0  0  0  0  0  0  0  0  0
    8.9580   47.5790   43.8290 H   0  0  0  0  0  0  0  0  0  0  0  0
   10.7410   45.0140   41.9550 O   0  0  0  0  0  0  0  0  0  0  0  0
   10.6960   44.6720   41.0200 H   0  0  0  0  0  0  0  0  0  0  0  0
    8.4730   44.0480   45.4700 O   0  0  0  0  0  0  0  0  0  0  0  0
    8.7510   44.8840   45.9740 H   0  0  0  0  0  0  0  0  0  0  0  0
    7.6110   42.0120   43.4530 C   0  0  0  0  0  0  0  0  0  0  0  0
    6.4990   42.1470   44.3080 O   0  0  0  0  0  0  0  0  0  0  0  0
    6.2970   43.1500   44.3500 H   0  0  0  0  0  0  0  0  0  0  0  0
  1 12  1  1  0  0  0
  1 11  1  0  0  0  0
  2  3  1  0  0  0  0
  2  1  1  0  0  0  0
  2  4  1  0  0  0  0
  4  5  1  0  0  0  0
  5 11  1  6  0  0  0
  5 10  1  0  0  0  0
  6  5  1  6  0  0  0
  6  7  1  0  0  0  0
  7  8  1  0  0  0  0
  7 19  1  6  0  0  0
  8 23  1  1  0  0  0
  9 25  1  1  0  0  0
  9  8  1  0  0  0  0
 10  9  1  0  0  0  0
 12 13  2  0  0  0  0
 14 13  1  0  0  0  0
 15 14  2  0  0  0  0
 16 15  1  0  0  0  0
 17 18  2  0  0  0  0
 17 15  1  0  0  0  0
 18 12  1  0  0  0  0
 20 19  1  0  0  0  0
 21  6  1  0  0  0  0
 22 21  1  0  0  0  0
 23 24  1  0  0  0  0
 25 26  1  0  0  0  0
 26 27  1  0  0  0  0
M  END
>  <minimizedAffinity>
-7.57762289

$$$$

 OpenBabel12271915083D

 27 29  0  0  1  0  0  0  0  0999 V2000
   10.3760   46.3540   47.7660 C   0  0  1  0  0  0  0  0  0  0  0  0
   11.0750   47.5560   48.2310 N   0  0  0  0  0  0  0  0  0  0  0  0
   10.4200   48.4080   48.2560 H   0  0  0  0  0  0  0  0  0  0  0  0
   11.3340   47.3140   49.6050 O   0  0  0  0  0  0  0  0  0  0  0  0
   10.2430   46.5990   50.1770 C   0  0  2  0  0  0  0  0  0  0  0  0
    9.2240   47.6710   50.6920 C   0  0  1  0  0  0  0  0  0  0  0  0
    8.1580   47.0770   51.6720 C   0  0  2  0  0  0  0  0  0  0  0  0
    8.6100   45.7290   52.3330 C   0  0  1  0  0  0  0  0  0  0  0  0
   10.1470   45.7410   52.4700 C   0  0  2  0  0  0  0  0  0  0  0  0
   10.7600   45.7180   51.1690 O   0  0  0  0  0  0  0  0  0  0  0  0
    9.6880   45.7850   49.0220 C   0  0  0  0  0  0  0  0  0  0  0  0
    9.4810   46.5700   46.5650 C   0  0  0  0  0  0  0  0  0  0  0  0
    8.5520   47.6570   46.6000 C   0  0  0  0  0  0  0  0  0  0  0  0
    7.6490   47.8640   45.5410 C   0  0  0  0  0  0  0  0  0  0  0  0
    7.6500   47.0270   44.4350 C   0  0  0  0  0  0  0  0  0  0  0  0
    6.7130   47.2660   43.2900 C   0  0  0  0  0  0  0  0  0  0  0  0
    8.5940   46.0020   44.3650 C   0  0  0  0  0  0  0  0  0  0  0  0
    9.5130   45.7900   45.4090 C   0  0  0  0  0  0  0  0  0  0  0  0
    6.8630   46.8150   51.1560 O   0  0  0  0  0  0  0  0  0  0  0  0
    6.7160   47.3220   50.3360 H   0  0  0  0  0  0  0  0  0  0  0  0
    9.9010   48.7100   51.4270 O   0  0  0  0  0  0  0  0  0  0  0  0
   10.8100   48.7770   51.0240 H   0  0  0  0  0  0  0  0  0  0  0  0
    7.9640   45.5630   53.6130 O   0  0  0  0  0  0  0  0  0  0  0  0
    7.0310   45.9400   53.4810 H   0  0  0  0  0  0  0  0  0  0  0  0
   10.7990   44.6420   53.3500 C   0  0  0  0  0  0  0  0  0  0  0  0
   12.2080   44.6550   53.3490 O   0  0  0  0  0  0  0  0  0  0  0  0
   12.4810   45.5350   52.9020 H   0  0  0  0  0  0  0  0  0  0  0  0
  1 12  1  6  0  0  0
  1  2  1  0  0  0  0
  1 11  1  0  0  0  0
  2  3  1  0  0  0  0
  2  4  1  0  0  0  0
  4  5  1  0  0  0  0
  5 11  1  6  0  0  0
  5 10  1  0  0  0  0
  6  5  1  1  0  0  0
  6 21  1  0  0  0  0
  6  7  1  0  0  0  0
  7 19  1  6  0  0  0
  7  8  1  0  0  0  0
  8  9  1  0  0  0  0
  8 23  1  1  0  0  0
  9 25  1  1  0  0  0
 10  9  1  0  0  0  0
 12 13  1  0  0  0  0
 14 13  2  0  0  0  0
 15 14  1  0  0  0  0
 16 15  1  0  0  0  0
 17 15  2  0  0  0  0
 17 18  1  0  0  0  0
 18 12  2  0  0  0  0
 20 19  1  0  0  0  0
 22 21  1  0  0  0  0
 24 23  1  0  0  0  0
 26 25  1  0  0  0  0
 27 26  1  0  0  0  0
M  END
>  <minimizedAffinity>
-7.29727507

$$$$

 OpenBabel12271915083D

 27 29  0  0  1  0  0  0  0  0999 V2000
    7.5070   46.6400   40.9880 C   0  0  1  0  0  0  0  0  0  0  0  0
    8.9150   46.3740   41.2930 N   0  0  0  0  0  0  0  0  0  0  0  0
    9.5560   47.1400   40.8940 H   0  0  0  0  0  0  0  0  0  0  0  0
    9.0230   46.5680   42.6940 O   0  0  0  0  0  0  0  0  0  0  0  0
    8.1770   47.6410   43.0940 C   0  0  2  0  0  0  0  0  0  0  0  0
    9.0280   48.9510   42.9800 C   0  0  1  0  0  0  0  0  0  0  0  0
    8.3820   50.1640   43.7280 C   0  0  2  0  0  0  0  0  0  0  0  0
    7.3540   49.7330   44.8310 C   0  0  1  0  0  0  0  0  0  0  0  0
    7.7900   48.3670   45.4020 C   0  0  2  0  0  0  0  0  0  0  0  0
    7.6720   47.3490   44.3930 O   0  0  0  0  0  0  0  0  0  0  0  0
    7.0370   47.6050   42.0920 C   0  0  0  0  0  0  0  0  0  0  0  0
    7.2430   47.0880   39.5660 C   0  0  0  0  0  0  0  0  0  0  0  0
    6.7930   48.4280   39.3510 C   0  0  0  0  0  0  0  0  0  0  0  0
    6.4680   48.8780   38.0580 C   0  0  0  0  0  0  0  0  0  0  0  0
    6.5900   48.0350   36.9630 C   0  0  0  0  0  0  0  0  0  0  0  0
    6.2780   48.5210   35.5800 C   0  0  0  0  0  0  0  0  0  0  0  0
    7.0870   46.7450   37.1550 C   0  0  0  0  0  0  0  0  0  0  0  0
    7.4300   46.2850   38.4400 C   0  0  0  0  0  0  0  0  0  0  0  0
    7.6970   51.1310   42.9480 O   0  0  0  0  0  0  0  0  0  0  0  0
    7.9770   51.0740   42.0160 H   0  0  0  0  0  0  0  0  0  0  0  0
   10.3300   48.7700   43.5710 O   0  0  0  0  0  0  0  0  0  0  0  0
   10.5500   47.8050   43.4480 H   0  0  0  0  0  0  0  0  0  0  0  0
    7.2810   50.7400   45.8620 O   0  0  0  0  0  0  0  0  0  0  0  0
    7.3700   51.6220   45.3670 H   0  0  0  0  0  0  0  0  0  0  0  0
    7.0930   47.8730   46.6970 C   0  0  0  0  0  0  0  0  0  0  0  0
    7.2290   46.4920   46.9410 O   0  0  0  0  0  0  0  0  0  0  0  0
    7.9400   46.1580   46.2830 H   0  0  0  0  0  0  0  0  0  0  0  0
  1 12  1  6  0  0  0
  1  2  1  0  0  0  0
  1 11  1  0  0  0  0
  2  4  1  0  0  0  0
  3  2  1  0  0  0  0
  4  5  1  0  0  0  0
  5 11  1  6  0  0  0
  5 10  1  0  0  0  0
  6  5  1  1  0  0  0
  6 21  1  0  0  0  0
  6  7  1  0  0  0  0
  7 19  1  6  0  0  0
  7  8  1  0  0  0  0
  8  9  1  0  0  0  0
  8 23  1  1  0  0  0
  9 25  1  1  0  0  0
 10  9  1  0  0  0  0
 13 12  1  0  0  0  0
 14 13  2  0  0  0  0
 15 17  2  0  0  0  0
 15 14  1  0  0  0  0
 16 15  1  0  0  0  0
 17 18  1  0  0  0  0
 18 12  2  0  0  0  0
 20 19  1  0  0  0  0
 22 21  1  0  0  0  0
 24 23  1  0  0  0  0
 25 26  1  0  0  0  0
 27 26  1  0  0  0  0
M  END
>  <minimizedAffinity>
-7.27562141

$$$$
