
 OpenBabel12271915083D

 32 35  0  0  1  0  0  0  0  0999 V2000
    7.3150   46.5720   44.2950 C   0  0  0  0  0  0  0  0  0  0  0  0
    7.3240   47.8370   43.6980 C   0  0  0  0  0  0  0  0  0  0  0  0
    7.6010   48.9840   44.4560 C   0  0  0  0  0  0  0  0  0  0  0  0
    7.8770   48.7680   45.8060 C   0  0  0  0  0  0  0  0  0  0  0  0
    7.8900   47.5470   46.3850 N   0  0  0  0  0  0  0  0  0  0  0  0
    7.6120   46.4630   45.6430 C   0  0  0  0  0  0  0  0  0  0  0  0
    7.6140   50.3110   43.8410 C   0  0  0  0  0  0  0  0  0  0  0  0
    7.9170   51.4780   44.5410 C   0  0  0  0  0  0  0  0  0  0  0  0
    7.9090   52.7540   43.9320 C   0  0  0  0  0  0  0  0  0  0  0  0
    7.6030   52.8410   42.5790 C   0  0  0  0  0  0  0  0  0  0  0  0
    7.5180   53.8850   41.7200 N   0  0  0  0  0  0  0  0  0  0  0  0
    7.6700   54.8720   41.8990 H   0  0  0  0  0  0  0  0  0  0  0  0
    7.1850   53.4610   40.4900 N   0  0  0  0  0  0  0  0  0  0  0  0
    7.0690   52.1370   40.5540 C   0  0  0  0  0  0  0  0  0  0  0  0
    6.7090   51.2990   39.3810 C   0  0  0  0  0  0  0  0  0  0  0  0
    7.3100   51.6990   41.8490 C   0  0  0  0  0  0  0  0  0  0  0  0
    7.3060   50.4530   42.4780 C   0  0  0  0  0  0  0  0  0  0  0  0
    6.9960   45.5470   43.4490 O   0  0  0  0  0  0  0  0  0  0  0  0
    8.0320   44.6030   43.1630 C   0  0  0  0  0  0  0  0  0  0  0  0
    8.9300   45.1020   42.0170 C   0  0  1  0  0  0  0  0  0  0  0  0
   10.3650   44.8130   42.3230 N   0  0  0  0  0  0  0  0  0  0  0  0
   10.5490   43.7970   42.2640 H   0  0  0  0  0  0  0  0  0  0  0  0
   10.9850   45.2750   41.6480 H   0  0  0  0  0  0  0  0  0  0  0  0
   10.6310   45.1550   43.2630 H   0  0  0  0  0  0  0  0  0  0  0  0
    8.6170   44.4790   40.6540 C   0  0  0  0  0  0  0  0  0  0  0  0
    7.9870   45.4640   39.7170 C   0  0  0  0  0  0  0  0  0  0  0  0
    7.6140   46.7320   40.1580 C   0  0  0  0  0  0  0  0  0  0  0  0
    7.0780   47.6470   39.2570 C   0  0  0  0  0  0  0  0  0  0  0  0
    6.8930   47.3090   37.9240 C   0  0  0  0  0  0  0  0  0  0  0  0
    6.1240   48.5590   36.7100 Br  0  0  0  0  0  0  0  0  0  0  0  0
    7.2580   46.0480   37.4860 C   0  0  0  0  0  0  0  0  0  0  0  0
    7.8050   45.1210   38.3740 C   0  0  0  0  0  0  0  0  0  0  0  0
  1  6  1  0  0  0  0
  2  1  2  0  0  0  0
  2  3  1  0  0  0  0
  3  4  2  0  0  0  0
  4  5  1  0  0  0  0
  6  5  2  0  0  0  0
  7  3  1  0  0  0  0
  7  8  2  0  0  0  0
  9  8  1  0  0  0  0
 10  9  2  0  0  0  0
 11 12  1  0  0  0  0
 11 10  1  0  0  0  0
 13 14  2  0  0  0  0
 13 11  1  0  0  0  0
 14 16  1  0  0  0  0
 15 14  1  0  0  0  0
 16 17  2  0  0  0  0
 16 10  1  0  0  0  0
 17  7  1  0  0  0  0
 18  1  1  0  0  0  0
 19 18  1  0  0  0  0
 20 25  1  6  0  0  0
 20 21  1  0  0  0  0
 20 19  1  0  0  0  0
 21 24  1  0  0  0  0
 22 21  1  0  0  0  0
 23 21  1  0  0  0  0
 26 27  1  0  0  0  0
 26 25  1  0  0  0  0
 28 27  2  0  0  0  0
 29 28  1  0  0  0  0
 30 29  1  0  0  0  0
 31 29  2  0  0  0  0
 31 32  1  0  0  0  0
 32 26  2  0  0  0  0
M  END
>  <minimizedAffinity>
-9.18863964

$$$$

 OpenBabel12271915083D

 32 35  0  0  1  0  0  0  0  0999 V2000
    7.3970   46.0470   44.1410 C   0  0  0  0  0  0  0  0  0  0  0  0
    7.2330   47.1960   43.3620 C   0  0  0  0  0  0  0  0  0  0  0  0
    7.5480   48.4620   43.8770 C   0  0  0  0  0  0  0  0  0  0  0  0
    8.0420   48.4800   45.1820 C   0  0  0  0  0  0  0  0  0  0  0  0
    8.2230   47.3720   45.9340 N   0  0  0  0  0  0  0  0  0  0  0  0
    7.9050   46.1710   45.4240 C   0  0  0  0  0  0  0  0  0  0  0  0
    7.3810   49.6690   43.0700 C   0  0  0  0  0  0  0  0  0  0  0  0
    6.8930   49.6580   41.7650 C   0  0  0  0  0  0  0  0  0  0  0  0
    6.7530   50.8350   40.9940 C   0  0  0  0  0  0  0  0  0  0  0  0
    7.1020   52.0500   41.5710 C   0  0  0  0  0  0  0  0  0  0  0  0
    7.0810   53.3250   41.1150 N   0  0  0  0  0  0  0  0  0  0  0  0
    6.7890   53.6730   40.2070 H   0  0  0  0  0  0  0  0  0  0  0  0
    7.5210   54.1750   42.0580 N   0  0  0  0  0  0  0  0  0  0  0  0
    7.8130   53.4440   43.1310 C   0  0  0  0  0  0  0  0  0  0  0  0
    8.3330   54.0320   44.3920 C   0  0  0  0  0  0  0  0  0  0  0  0
    7.5790   52.1010   42.8730 C   0  0  0  0  0  0  0  0  0  0  0  0
    7.7250   50.9220   43.6050 C   0  0  0  0  0  0  0  0  0  0  0  0
    7.0190   44.8850   43.5270 O   0  0  0  0  0  0  0  0  0  0  0  0
    8.0680   44.0450   43.0380 C   0  0  0  0  0  0  0  0  0  0  0  0
    8.8810   44.7600   41.9450 C   0  0  1  0  0  0  0  0  0  0  0  0
   10.3350   44.7530   42.2950 N   0  0  0  0  0  0  0  0  0  0  0  0
   10.7230   43.7980   42.2090 H   0  0  0  0  0  0  0  0  0  0  0  0
   10.8690   45.3580   41.6600 H   0  0  0  0  0  0  0  0  0  0  0  0
   10.4970   45.1040   43.2550 H   0  0  0  0  0  0  0  0  0  0  0  0
    8.7420   44.1420   40.5500 C   0  0  0  0  0  0  0  0  0  0  0  0
    8.1900   45.1170   39.5570 C   0  0  0  0  0  0  0  0  0  0  0  0
    7.7670   44.6930   38.2980 C   0  0  0  0  0  0  0  0  0  0  0  0
    7.2110   45.6080   37.4110 C   0  0  0  0  0  0  0  0  0  0  0  0
    7.0850   46.9470   37.7540 C   0  0  0  0  0  0  0  0  0  0  0  0
    6.3560   48.1960   36.5150 Br  0  0  0  0  0  0  0  0  0  0  0  0
    7.5100   47.3710   39.0010 C   0  0  0  0  0  0  0  0  0  0  0  0
    8.0630   46.4640   39.9070 C   0  0  0  0  0  0  0  0  0  0  0  0
  1  6  2  0  0  0  0
  2  3  2  0  0  0  0
  2  1  1  0  0  0  0
  3  4  1  0  0  0  0
  4  5  2  0  0  0  0
  6  5  1  0  0  0  0
  7 17  1  0  0  0  0
  7  3  1  0  0  0  0
  8  7  2  0  0  0  0
  9 10  2  0  0  0  0
  9  8  1  0  0  0  0
 10 16  1  0  0  0  0
 11 10  1  0  0  0  0
 11 13  1  0  0  0  0
 12 11  1  0  0  0  0
 13 14  2  0  0  0  0
 14 15  1  0  0  0  0
 16 14  1  0  0  0  0
 16 17  2  0  0  0  0
 18  1  1  0  0  0  0
 19 18  1  0  0  0  0
 20 25  1  6  0  0  0
 20 21  1  0  0  0  0
 20 19  1  0  0  0  0
 21 24  1  0  0  0  0
 22 21  1  0  0  0  0
 23 21  1  0  0  0  0
 26 32  1  0  0  0  0
 26 25  1  0  0  0  0
 27 26  2  0  0  0  0
 28 29  2  0  0  0  0
 28 27  1  0  0  0  0
 29 31  1  0  0  0  0
 30 29  1  0  0  0  0
 31 32  2  0  0  0  0
M  END
>  <minimizedAffinity>
-9.16919231

$$$$

 OpenBabel12271915083D

 32 35  0  0  1  0  0  0  0  0999 V2000
    7.9270   46.3410   41.0740 C   0  0  0  0  0  0  0  0  0  0  0  0
    7.5190   46.6900   42.3650 C   0  0  0  0  0  0  0  0  0  0  0  0
    8.2000   46.1980   43.4890 C   0  0  0  0  0  0  0  0  0  0  0  0
    9.2950   45.3760   43.2230 C   0  0  0  0  0  0  0  0  0  0  0  0
    9.7070   45.0510   41.9780 N   0  0  0  0  0  0  0  0  0  0  0  0
    9.0350   45.5240   40.9170 C   0  0  0  0  0  0  0  0  0  0  0  0
    7.7810   46.5580   44.8420 C   0  0  0  0  0  0  0  0  0  0  0  0
    6.4790   46.9330   45.1690 C   0  0  0  0  0  0  0  0  0  0  0  0
    6.0970   47.2930   46.4820 C   0  0  0  0  0  0  0  0  0  0  0  0
    7.0580   47.2530   47.4860 C   0  0  0  0  0  0  0  0  0  0  0  0
    7.0140   47.5260   48.8120 N   0  0  0  0  0  0  0  0  0  0  0  0
    6.2270   47.8300   49.3750 H   0  0  0  0  0  0  0  0  0  0  0  0
    8.2200   47.3370   49.3750 N   0  0  0  0  0  0  0  0  0  0  0  0
    9.0390   46.9300   48.4090 C   0  0  0  0  0  0  0  0  0  0  0  0
   10.4720   46.6160   48.6440 C   0  0  0  0  0  0  0  0  0  0  0  0
    8.3600   46.8720   47.2000 C   0  0  0  0  0  0  0  0  0  0  0  0
    8.7160   46.5400   45.8920 C   0  0  0  0  0  0  0  0  0  0  0  0
    7.1550   46.8620   40.0740 O   0  0  0  0  0  0  0  0  0  0  0  0
    7.8280   47.2390   38.8700 C   0  0  0  0  0  0  0  0  0  0  0  0
    7.5500   48.7110   38.5210 C   0  0  1  0  0  0  0  0  0  0  0  0
    7.3970   48.8720   37.0420 N   0  0  0  0  0  0  0  0  0  0  0  0
    6.5130   48.4430   36.7220 H   0  0  0  0  0  0  0  0  0  0  0  0
    7.3680   49.8640   36.7810 H   0  0  0  0  0  0  0  0  0  0  0  0
    8.1890   48.4470   36.5290 H   0  0  0  0  0  0  0  0  0  0  0  0
    6.2930   49.2880   39.1780 C   0  0  0  0  0  0  0  0  0  0  0  0
    6.6200   50.3340   40.1970 C   0  0  0  0  0  0  0  0  0  0  0  0
    6.7790   49.9990   41.5410 C   0  0  0  0  0  0  0  0  0  0  0  0
    7.1330   50.9800   42.4610 C   0  0  0  0  0  0  0  0  0  0  0  0
    7.3150   52.2980   42.0630 C   0  0  0  0  0  0  0  0  0  0  0  0
    7.7630   53.6380   43.3410 Br  0  0  0  0  0  0  0  0  0  0  0  0
    7.1510   52.6330   40.7310 C   0  0  0  0  0  0  0  0  0  0  0  0
    6.8040   51.6600   39.7930 C   0  0  0  0  0  0  0  0  0  0  0  0
  1  2  1  0  0  0  0
  2  3  2  0  0  0  0
  3  7  1  0  0  0  0
  4  3  1  0  0  0  0
  5  4  2  0  0  0  0
  6  1  2  0  0  0  0
  6  5  1  0  0  0  0
  7  8  2  0  0  0  0
  7 17  1  0  0  0  0
  8  9  1  0  0  0  0
  9 10  2  0  0  0  0
 10 11  1  0  0  0  0
 11 12  1  0  0  0  0
 11 13  1  0  0  0  0
 14 15  1  0  0  0  0
 14 13  2  0  0  0  0
 16 10  1  0  0  0  0
 16 14  1  0  0  0  0
 17 16  2  0  0  0  0
 18  1  1  0  0  0  0
 19 18  1  0  0  0  0
 20 19  1  6  0  0  0
 20 25  1  0  0  0  0
 21 20  1  0  0  0  0
 22 21  1  0  0  0  0
 23 21  1  0  0  0  0
 24 21  1  0  0  0  0
 25 26  1  0  0  0  0
 26 27  1  0  0  0  0
 27 28  2  0  0  0  0
 29 28  1  0  0  0  0
 29 30  1  0  0  0  0
 31 29  2  0  0  0  0
 32 26  2  0  0  0  0
 32 31  1  0  0  0  0
M  END
>  <minimizedAffinity>
-8.99200344

$$$$

 OpenBabel12271915083D

 32 35  0  0  1  0  0  0  0  0999 V2000
    8.7370   46.0340   42.2350 C   0  0  0  0  0  0  0  0  0  0  0  0
    8.1330   46.9130   41.3300 C   0  0  0  0  0  0  0  0  0  0  0  0
    7.9230   46.5340   39.9960 C   0  0  0  0  0  0  0  0  0  0  0  0
    8.3330   45.2450   39.6600 C   0  0  0  0  0  0  0  0  0  0  0  0
    8.8990   44.3830   40.5330 N   0  0  0  0  0  0  0  0  0  0  0  0
    9.1000   44.7700   41.8040 C   0  0  0  0  0  0  0  0  0  0  0  0
    7.2910   47.4450   39.0430 C   0  0  0  0  0  0  0  0  0  0  0  0
    6.8770   48.7350   39.3720 C   0  0  0  0  0  0  0  0  0  0  0  0
    6.2530   49.5960   38.4410 C   0  0  0  0  0  0  0  0  0  0  0  0
    6.0630   49.1390   37.1420 C   0  0  0  0  0  0  0  0  0  0  0  0
    5.5160   49.7050   36.0390 N   0  0  0  0  0  0  0  0  0  0  0  0
    5.1120   50.6290   35.9300 H   0  0  0  0  0  0  0  0  0  0  0  0
    5.5600   48.8550   34.9990 N   0  0  0  0  0  0  0  0  0  0  0  0
    6.1490   47.7440   35.4310 C   0  0  0  0  0  0  0  0  0  0  0  0
    6.3820   46.5620   34.5620 C   0  0  0  0  0  0  0  0  0  0  0  0
    6.4740   47.8670   36.7750 C   0  0  0  0  0  0  0  0  0  0  0  0
    7.0700   47.0300   37.7190 C   0  0  0  0  0  0  0  0  0  0  0  0
    8.9120   46.5450   43.4920 O   0  0  0  0  0  0  0  0  0  0  0  0
    7.9020   46.2380   44.4570 C   0  0  0  0  0  0  0  0  0  0  0  0
    7.1480   47.5090   44.8870 C   0  0  1  0  0  0  0  0  0  0  0  0
    6.2250   47.2020   46.0220 N   0  0  0  0  0  0  0  0  0  0  0  0
    6.7640   47.0140   46.8850 H   0  0  0  0  0  0  0  0  0  0  0  0
    5.6040   47.9960   46.2170 H   0  0  0  0  0  0  0  0  0  0  0  0
    5.6200   46.3890   45.8130 H   0  0  0  0  0  0  0  0  0  0  0  0
    8.0550   48.6600   45.3300 C   0  0  0  0  0  0  0  0  0  0  0  0
    7.8620   49.8840   44.4890 C   0  0  0  0  0  0  0  0  0  0  0  0
    7.6250   49.7810   43.1190 C   0  0  0  0  0  0  0  0  0  0  0  0
    7.3990   50.9290   42.3680 C   0  0  0  0  0  0  0  0  0  0  0  0
    7.4220   52.1840   42.9610 C   0  0  0  0  0  0  0  0  0  0  0  0
    7.1470   53.7510   41.9130 Br  0  0  0  0  0  0  0  0  0  0  0  0
    7.6630   52.2880   44.3190 C   0  0  0  0  0  0  0  0  0  0  0  0
    7.8840   51.1460   45.0900 C   0  0  0  0  0  0  0  0  0  0  0  0
  1 18  1  0  0  0  0
  2  1  2  0  0  0  0
  3  2  1  0  0  0  0
  4  3  2  0  0  0  0
  4  5  1  0  0  0  0
  5  6  2  0  0  0  0
  6  1  1  0  0  0  0
  7  8  1  0  0  0  0
  7  3  1  0  0  0  0
  9  8  2  0  0  0  0
 10  9  1  0  0  0  0
 11 10  1  0  0  0  0
 12 11  1  0  0  0  0
 13 14  2  0  0  0  0
 13 11  1  0  0  0  0
 14 16  1  0  0  0  0
 15 14  1  0  0  0  0
 16 10  2  0  0  0  0
 16 17  1  0  0  0  0
 17  7  2  0  0  0  0
 18 19  1  0  0  0  0
 20 19  1  1  0  0  0
 20 25  1  0  0  0  0
 20 21  1  0  0  0  0
 21 23  1  0  0  0  0
 21 22  1  0  0  0  0
 24 21  1  0  0  0  0
 26 32  1  0  0  0  0
 26 25  1  0  0  0  0
 27 26  2  0  0  0  0
 28 29  2  0  0  0  0
 28 27  1  0  0  0  0
 29 31  1  0  0  0  0
 30 29  1  0  0  0  0
 31 32  2  0  0  0  0
M  END
>  <minimizedAffinity>
-8.86416531

$$$$

 OpenBabel12271915083D

 32 35  0  0  1  0  0  0  0  0999 V2000
    7.1220   46.7350   44.1390 C   0  0  0  0  0  0  0  0  0  0  0  0
    7.0430   48.0460   43.6570 C   0  0  0  0  0  0  0  0  0  0  0  0
    7.2120   48.3180   42.2920 C   0  0  0  0  0  0  0  0  0  0  0  0
    7.4390   47.2100   41.4760 C   0  0  0  0  0  0  0  0  0  0  0  0
    7.4980   45.9400   41.9310 N   0  0  0  0  0  0  0  0  0  0  0  0
    7.3430   45.7020   43.2440 C   0  0  0  0  0  0  0  0  0  0  0  0
    7.1300   49.6850   41.7780 C   0  0  0  0  0  0  0  0  0  0  0  0
    6.7140   49.9950   40.4840 C   0  0  0  0  0  0  0  0  0  0  0  0
    6.6560   51.3220   40.0000 C   0  0  0  0  0  0  0  0  0  0  0  0
    7.0120   52.3550   40.8580 C   0  0  0  0  0  0  0  0  0  0  0  0
    7.0590   53.7010   40.7080 N   0  0  0  0  0  0  0  0  0  0  0  0
    6.8290   54.2600   39.8920 H   0  0  0  0  0  0  0  0  0  0  0  0
    7.4740   54.2910   41.8410 N   0  0  0  0  0  0  0  0  0  0  0  0
    7.6820   53.3220   42.7290 C   0  0  0  0  0  0  0  0  0  0  0  0
    8.1510   53.5830   44.1140 C   0  0  0  0  0  0  0  0  0  0  0  0
    7.4180   52.0860   42.1570 C   0  0  0  0  0  0  0  0  0  0  0  0
    7.4850   50.7650   42.6030 C   0  0  0  0  0  0  0  0  0  0  0  0
    6.9730   46.6180   45.4930 O   0  0  0  0  0  0  0  0  0  0  0  0
    7.8720   47.3740   46.3080 C   0  0  0  0  0  0  0  0  0  0  0  0
    8.3650   46.5400   47.5030 C   0  0  1  0  0  0  0  0  0  0  0  0
    8.4800   45.1000   47.1160 N   0  0  0  0  0  0  0  0  0  0  0  0
    9.2720   44.9630   46.4650 H   0  0  0  0  0  0  0  0  0  0  0  0
    8.6550   44.5110   47.9390 H   0  0  0  0  0  0  0  0  0  0  0  0
    7.6100   44.7540   46.6760 H   0  0  0  0  0  0  0  0  0  0  0  0
    9.7240   46.9760   48.0590 C   0  0  0  0  0  0  0  0  0  0  0  0
    9.6430   47.3670   49.5020 C   0  0  0  0  0  0  0  0  0  0  0  0
   10.7920   47.6900   50.2220 C   0  0  0  0  0  0  0  0  0  0  0  0
   10.6860   48.0990   51.5460 C   0  0  0  0  0  0  0  0  0  0  0  0
    9.4490   48.1750   52.1720 C   0  0  0  0  0  0  0  0  0  0  0  0
    9.3220   48.7010   53.9980 Br  0  0  0  0  0  0  0  0  0  0  0  0
    8.3080   47.8480   51.4610 C   0  0  0  0  0  0  0  0  0  0  0  0
    8.3950   47.4440   50.1280 C   0  0  0  0  0  0  0  0  0  0  0  0
  1 18  1  0  0  0  0
  2  1  1  0  0  0  0
  3  2  2  0  0  0  0
  4  5  2  0  0  0  0
  4  3  1  0  0  0  0
  5  6  1  0  0  0  0
  6  1  2  0  0  0  0
  7  3  1  0  0  0  0
  7 17  2  0  0  0  0
  8  7  1  0  0  0  0
  9  8  2  0  0  0  0
  9 10  1  0  0  0  0
 10 16  2  0  0  0  0
 11 10  1  0  0  0  0
 11 13  1  0  0  0  0
 12 11  1  0  0  0  0
 13 14  2  0  0  0  0
 14 15  1  0  0  0  0
 16 17  1  0  0  0  0
 16 14  1  0  0  0  0
 18 19  1  0  0  0  0
 20 19  1  6  0  0  0
 20 25  1  0  0  0  0
 21 20  1  0  0  0  0
 21 23  1  0  0  0  0
 22 21  1  0  0  0  0
 24 21  1  0  0  0  0
 25 26  1  0  0  0  0
 26 32  2  0  0  0  0
 26 27  1  0  0  0  0
 27 28  2  0  0  0  0
 28 29  1  0  0  0  0
 29 30  1  0  0  0  0
 31 29  2  0  0  0  0
 32 31  1  0  0  0  0
M  END
>  <minimizedAffinity>
-8.71661758

$$$$

 OpenBabel12271915083D

 32 35  0  0  1  0  0  0  0  0999 V2000
    7.8870   50.3860   44.5860 C   0  0  0  0  0  0  0  0  0  0  0  0
    7.6170   50.0610   43.2520 C   0  0  0  0  0  0  0  0  0  0  0  0
    7.0230   50.9980   42.3940 C   0  0  0  0  0  0  0  0  0  0  0  0
    6.7510   52.2460   42.9530 C   0  0  0  0  0  0  0  0  0  0  0  0
    7.0280   52.5740   44.2340 N   0  0  0  0  0  0  0  0  0  0  0  0
    7.5870   51.6580   45.0420 C   0  0  0  0  0  0  0  0  0  0  0  0
    6.7370   50.6680   40.9980 C   0  0  0  0  0  0  0  0  0  0  0  0
    6.1940   51.5770   40.0910 C   0  0  0  0  0  0  0  0  0  0  0  0
    5.9090   51.2350   38.7490 C   0  0  0  0  0  0  0  0  0  0  0  0
    6.2000   49.9460   38.3180 C   0  0  0  0  0  0  0  0  0  0  0  0
    6.0570   49.3200   37.1250 N   0  0  0  0  0  0  0  0  0  0  0  0
    5.6880   49.6860   36.2530 H   0  0  0  0  0  0  0  0  0  0  0  0
    6.4890   48.0500   37.2000 N   0  0  0  0  0  0  0  0  0  0  0  0
    6.9240   47.8620   38.4430 C   0  0  0  0  0  0  0  0  0  0  0  0
    7.4830   46.5690   38.9170 C   0  0  0  0  0  0  0  0  0  0  0  0
    6.7530   49.0190   39.1900 C   0  0  0  0  0  0  0  0  0  0  0  0
    7.0070   49.3770   40.5150 C   0  0  0  0  0  0  0  0  0  0  0  0
    8.4350   49.3690   45.3180 O   0  0  0  0  0  0  0  0  0  0  0  0
    9.3740   48.5250   44.6460 C   0  0  0  0  0  0  0  0  0  0  0  0
    9.3750   47.1110   45.2520 C   0  0  1  0  0  0  0  0  0  0  0  0
    9.6300   46.0930   44.1870 N   0  0  0  0  0  0  0  0  0  0  0  0
   10.6100   46.1480   43.8620 H   0  0  0  0  0  0  0  0  0  0  0  0
    9.4790   45.1420   44.5430 H   0  0  0  0  0  0  0  0  0  0  0  0
    8.9940   46.2190   43.3800 H   0  0  0  0  0  0  0  0  0  0  0  0
   10.4190   46.8970   46.3520 C   0  0  0  0  0  0  0  0  0  0  0  0
    9.8280   47.0270   47.7210 C   0  0  0  0  0  0  0  0  0  0  0  0
   10.6320   47.3090   48.8240 C   0  0  0  0  0  0  0  0  0  0  0  0
   10.0540   47.4750   50.0780 C   0  0  0  0  0  0  0  0  0  0  0  0
    8.6830   47.3460   50.2520 C   0  0  0  0  0  0  0  0  0  0  0  0
    7.9080   47.5400   51.9820 Br  0  0  0  0  0  0  0  0  0  0  0  0
    7.8830   47.0600   49.1600 C   0  0  0  0  0  0  0  0  0  0  0  0
    8.4460   46.8980   47.8930 C   0  0  0  0  0  0  0  0  0  0  0  0
  1  6  1  0  0  0  0
  1 18  1  0  0  0  0
  2  1  2  0  0  0  0
  3  4  2  0  0  0  0
  3  2  1  0  0  0  0
  4  5  1  0  0  0  0
  5  6  2  0  0  0  0
  7  3  1  0  0  0  0
  8  7  2  0  0  0  0
  9  8  1  0  0  0  0
 10  9  2  0  0  0  0
 10 16  1  0  0  0  0
 11 13  1  0  0  0  0
 11 10  1  0  0  0  0
 12 11  1  0  0  0  0
 13 14  2  0  0  0  0
 14 15  1  0  0  0  0
 14 16  1  0  0  0  0
 16 17  2  0  0  0  0
 17  7  1  0  0  0  0
 19 18  1  0  0  0  0
 20 19  1  6  0  0  0
 20 25  1  0  0  0  0
 21 23  1  0  0  0  0
 21 20  1  0  0  0  0
 22 21  1  0  0  0  0
 24 21  1  0  0  0  0
 25 26  1  0  0  0  0
 26 32  2  0  0  0  0
 26 27  1  0  0  0  0
 27 28  2  0  0  0  0
 28 29  1  0  0  0  0
 29 30  1  0  0  0  0
 31 29  2  0  0  0  0
 32 31  1  0  0  0  0
M  END
>  <minimizedAffinity>
-8.6660862

$$$$

 OpenBabel12271915083D

 32 35  0  0  1  0  0  0  0  0999 V2000
    8.5880   45.8500   38.9240 C   0  0  0  0  0  0  0  0  0  0  0  0
    8.6960   45.6970   40.3100 C   0  0  0  0  0  0  0  0  0  0  0  0
    8.6420   44.4240   40.8960 C   0  0  0  0  0  0  0  0  0  0  0  0
    8.4980   43.3540   40.0120 C   0  0  0  0  0  0  0  0  0  0  0  0
    8.4140   43.4930   38.6700 N   0  0  0  0  0  0  0  0  0  0  0  0
    8.4570   44.7220   38.1310 C   0  0  0  0  0  0  0  0  0  0  0  0
    8.7550   44.2530   42.3430 C   0  0  0  0  0  0  0  0  0  0  0  0
    8.6120   43.0230   42.9850 C   0  0  0  0  0  0  0  0  0  0  0  0
    8.7090   42.8810   44.3880 C   0  0  0  0  0  0  0  0  0  0  0  0
    8.9730   44.0110   45.1520 C   0  0  0  0  0  0  0  0  0  0  0  0
    9.1280   44.2060   46.4830 N   0  0  0  0  0  0  0  0  0  0  0  0
    9.0800   43.5280   47.2370 H   0  0  0  0  0  0  0  0  0  0  0  0
    9.3760   45.5000   46.7480 N   0  0  0  0  0  0  0  0  0  0  0  0
    9.3940   46.1380   45.5800 C   0  0  0  0  0  0  0  0  0  0  0  0
    9.6400   47.5980   45.4610 C   0  0  0  0  0  0  0  0  0  0  0  0
    9.1340   45.2490   44.5470 C   0  0  0  0  0  0  0  0  0  0  0  0
    9.0150   45.3650   43.1610 C   0  0  0  0  0  0  0  0  0  0  0  0
    8.6210   47.1470   38.4920 O   0  0  0  0  0  0  0  0  0  0  0  0
    7.4470   47.6380   37.8400 C   0  0  0  0  0  0  0  0  0  0  0  0
    6.9510   48.9350   38.5030 C   0  0  1  0  0  0  0  0  0  0  0  0
    6.0180   49.6600   37.5870 N   0  0  0  0  0  0  0  0  0  0  0  0
    5.1230   49.1490   37.5050 H   0  0  0  0  0  0  0  0  0  0  0  0
    5.8030   50.5970   37.9470 H   0  0  0  0  0  0  0  0  0  0  0  0
    6.4290   49.7840   36.6460 H   0  0  0  0  0  0  0  0  0  0  0  0
    6.2190   48.7240   39.8320 C   0  0  0  0  0  0  0  0  0  0  0  0
    6.5970   49.7520   40.8520 C   0  0  0  0  0  0  0  0  0  0  0  0
    7.1390   49.3770   42.0800 C   0  0  0  0  0  0  0  0  0  0  0  0
    7.5300   50.3520   42.9910 C   0  0  0  0  0  0  0  0  0  0  0  0
    7.3710   51.7000   42.7030 C   0  0  0  0  0  0  0  0  0  0  0  0
    7.8760   53.0250   43.9750 Br  0  0  0  0  0  0  0  0  0  0  0  0
    6.8270   52.0750   41.4870 C   0  0  0  0  0  0  0  0  0  0  0  0
    6.4370   51.1100   40.5570 C   0  0  0  0  0  0  0  0  0  0  0  0
  1  2  2  0  0  0  0
  2  3  1  0  0  0  0
  3  7  1  0  0  0  0
  4  3  2  0  0  0  0
  5  4  1  0  0  0  0
  6  5  2  0  0  0  0
  6  1  1  0  0  0  0
  7  8  2  0  0  0  0
  7 17  1  0  0  0  0
  8  9  1  0  0  0  0
  9 10  2  0  0  0  0
 10 11  1  0  0  0  0
 11 13  1  0  0  0  0
 11 12  1  0  0  0  0
 14 13  2  0  0  0  0
 15 14  1  0  0  0  0
 16 10  1  0  0  0  0
 16 14  1  0  0  0  0
 17 16  2  0  0  0  0
 18  1  1  0  0  0  0
 19 18  1  0  0  0  0
 20 19  1  6  0  0  0
 20 25  1  0  0  0  0
 21 23  1  0  0  0  0
 21 20  1  0  0  0  0
 22 21  1  0  0  0  0
 24 21  1  0  0  0  0
 25 26  1  0  0  0  0
 26 27  1  0  0  0  0
 27 28  2  0  0  0  0
 29 28  1  0  0  0  0
 29 30  1  0  0  0  0
 31 29  2  0  0  0  0
 32 26  2  0  0  0  0
 32 31  1  0  0  0  0
M  END
>  <minimizedAffinity>
-8.51832962

$$$$

 OpenBabel12271915083D

 32 35  0  0  1  0  0  0  0  0999 V2000
    7.6520   47.0220   38.2910 C   0  0  0  0  0  0  0  0  0  0  0  0
    7.6740   48.1740   39.0830 C   0  0  0  0  0  0  0  0  0  0  0  0
    6.8110   49.2460   38.8110 C   0  0  0  0  0  0  0  0  0  0  0  0
    5.9420   49.0680   37.7340 C   0  0  0  0  0  0  0  0  0  0  0  0
    5.9020   47.9490   36.9770 N   0  0  0  0  0  0  0  0  0  0  0  0
    6.7440   46.9390   37.2490 C   0  0  0  0  0  0  0  0  0  0  0  0
    6.8250   50.4550   39.6330 C   0  0  0  0  0  0  0  0  0  0  0  0
    6.6260   51.7350   39.1200 C   0  0  0  0  0  0  0  0  0  0  0  0
    6.6590   52.8940   39.9290 C   0  0  0  0  0  0  0  0  0  0  0  0
    6.8830   52.7440   41.2920 C   0  0  0  0  0  0  0  0  0  0  0  0
    6.9670   53.6290   42.3140 N   0  0  0  0  0  0  0  0  0  0  0  0
    6.8760   54.6400   42.2910 H   0  0  0  0  0  0  0  0  0  0  0  0
    7.2000   52.9940   43.4740 N   0  0  0  0  0  0  0  0  0  0  0  0
    7.2540   51.6930   43.2000 C   0  0  0  0  0  0  0  0  0  0  0  0
    7.4970   50.6580   44.2380 C   0  0  0  0  0  0  0  0  0  0  0  0
    7.0730   51.4840   41.8400 C   0  0  0  0  0  0  0  0  0  0  0  0
    7.0540   50.3580   41.0160 C   0  0  0  0  0  0  0  0  0  0  0  0
    8.5680   46.0710   38.6460 O   0  0  0  0  0  0  0  0  0  0  0  0
    8.0610   44.7680   38.9440 C   0  0  0  0  0  0  0  0  0  0  0  0
    8.3830   44.3700   40.3950 C   0  0  1  0  0  0  0  0  0  0  0  0
    8.7270   42.9170   40.4680 N   0  0  0  0  0  0  0  0  0  0  0  0
    9.6460   42.7410   40.0280 H   0  0  0  0  0  0  0  0  0  0  0  0
    8.7910   42.6030   41.4440 H   0  0  0  0  0  0  0  0  0  0  0  0
    8.0090   42.3320   40.0080 H   0  0  0  0  0  0  0  0  0  0  0  0
    9.5440   45.1490   41.0190 C   0  0  0  0  0  0  0  0  0  0  0  0
    9.2080   45.6620   42.3850 C   0  0  0  0  0  0  0  0  0  0  0  0
    9.3940   44.8660   43.5140 C   0  0  0  0  0  0  0  0  0  0  0  0
    9.1220   45.3820   44.7760 C   0  0  0  0  0  0  0  0  0  0  0  0
    8.6500   46.6790   44.9300 C   0  0  0  0  0  0  0  0  0  0  0  0
    8.2470   47.3600   46.6620 Br  0  0  0  0  0  0  0  0  0  0  0  0
    8.4590   47.4680   43.8100 C   0  0  0  0  0  0  0  0  0  0  0  0
    8.7350   46.9690   42.5360 C   0  0  0  0  0  0  0  0  0  0  0  0
  1 18  1  0  0  0  0
  1  2  2  0  0  0  0
  3  2  1  0  0  0  0
  3  7  1  0  0  0  0
  4  3  2  0  0  0  0
  5  6  2  0  0  0  0
  5  4  1  0  0  0  0
  6  1  1  0  0  0  0
  7 17  1  0  0  0  0
  8  7  2  0  0  0  0
  8  9  1  0  0  0  0
  9 10  2  0  0  0  0
 10 16  1  0  0  0  0
 10 11  1  0  0  0  0
 11 13  1  0  0  0  0
 12 11  1  0  0  0  0
 14 13  2  0  0  0  0
 14 15  1  0  0  0  0
 16 14  1  0  0  0  0
 17 16  2  0  0  0  0
 18 19  1  0  0  0  0
 20 19  1  6  0  0  0
 20 21  1  0  0  0  0
 20 25  1  0  0  0  0
 21 23  1  0  0  0  0
 22 21  1  0  0  0  0
 24 21  1  0  0  0  0
 25 26  1  0  0  0  0
 26 32  2  0  0  0  0
 26 27  1  0  0  0  0
 27 28  2  0  0  0  0
 28 29  1  0  0  0  0
 29 30  1  0  0  0  0
 31 29  2  0  0  0  0
 32 31  1  0  0  0  0
M  END
>  <minimizedAffinity>
-8.44917679

$$$$

 OpenBabel12271915083D

 32 35  0  0  1  0  0  0  0  0999 V2000
    8.1590   46.5540   40.3980 C   0  0  0  0  0  0  0  0  0  0  0  0
    8.2480   47.4960   41.4280 C   0  0  0  0  0  0  0  0  0  0  0  0
    7.4990   48.6810   41.3810 C   0  0  0  0  0  0  0  0  0  0  0  0
    6.6670   48.8300   40.2710 C   0  0  0  0  0  0  0  0  0  0  0  0
    6.5600   47.9140   39.2830 N   0  0  0  0  0  0  0  0  0  0  0  0
    7.2950   46.7920   39.3420 C   0  0  0  0  0  0  0  0  0  0  0  0
    7.5840   49.6710   42.4530 C   0  0  0  0  0  0  0  0  0  0  0  0
    7.6820   49.3360   43.8030 C   0  0  0  0  0  0  0  0  0  0  0  0
    7.7480   50.3080   44.8270 C   0  0  0  0  0  0  0  0  0  0  0  0
    7.7320   51.6510   44.4660 C   0  0  0  0  0  0  0  0  0  0  0  0
    7.7850   52.7970   45.1860 N   0  0  0  0  0  0  0  0  0  0  0  0
    7.8530   52.9160   46.1920 H   0  0  0  0  0  0  0  0  0  0  0  0
    7.7380   53.8680   44.3770 N   0  0  0  0  0  0  0  0  0  0  0  0
    7.6680   53.4090   43.1300 C   0  0  0  0  0  0  0  0  0  0  0  0
    7.6000   54.3010   41.9440 C   0  0  0  0  0  0  0  0  0  0  0  0
    7.6480   52.0220   43.1330 C   0  0  0  0  0  0  0  0  0  0  0  0
    7.5650   51.0410   42.1430 C   0  0  0  0  0  0  0  0  0  0  0  0
    8.9690   45.4640   40.5540 O   0  0  0  0  0  0  0  0  0  0  0  0
    8.3220   44.2090   40.7830 C   0  0  0  0  0  0  0  0  0  0  0  0
    8.5030   43.7540   42.2420 C   0  0  1  0  0  0  0  0  0  0  0  0
    8.9790   42.3380   42.2870 N   0  0  0  0  0  0  0  0  0  0  0  0
    9.9570   42.2750   41.9590 H   0  0  0  0  0  0  0  0  0  0  0  0
    8.9540   41.9710   43.2450 H   0  0  0  0  0  0  0  0  0  0  0  0
    8.3840   41.7180   41.7100 H   0  0  0  0  0  0  0  0  0  0  0  0
    9.4950   44.5980   43.0460 C   0  0  0  0  0  0  0  0  0  0  0  0
    8.8390   45.2930   44.1990 C   0  0  0  0  0  0  0  0  0  0  0  0
    9.5500   45.5750   45.3640 C   0  0  0  0  0  0  0  0  0  0  0  0
    8.9330   46.2650   46.4010 C   0  0  0  0  0  0  0  0  0  0  0  0
    7.6070   46.6660   46.3010 C   0  0  0  0  0  0  0  0  0  0  0  0
    6.7640   47.5790   47.7440 Br  0  0  0  0  0  0  0  0  0  0  0  0
    6.8980   46.3820   45.1470 C   0  0  0  0  0  0  0  0  0  0  0  0
    7.5040   45.6970   44.0940 C   0  0  0  0  0  0  0  0  0  0  0  0
  1 18  1  0  0  0  0
  1  2  2  0  0  0  0
  3  2  1  0  0  0  0
  3  7  1  0  0  0  0
  4  3  2  0  0  0  0
  5  6  2  0  0  0  0
  5  4  1  0  0  0  0
  6  1  1  0  0  0  0
  7  8  1  0  0  0  0
  8  9  2  0  0  0  0
 10  9  1  0  0  0  0
 10 11  1  0  0  0  0
 11 12  1  0  0  0  0
 13 11  1  0  0  0  0
 14 16  1  0  0  0  0
 14 13  2  0  0  0  0
 15 14  1  0  0  0  0
 16 10  2  0  0  0  0
 17  7  2  0  0  0  0
 17 16  1  0  0  0  0
 18 19  1  0  0  0  0
 20 19  1  6  0  0  0
 20 21  1  0  0  0  0
 20 25  1  0  0  0  0
 21 23  1  0  0  0  0
 22 21  1  0  0  0  0
 24 21  1  0  0  0  0
 25 26  1  0  0  0  0
 26 27  1  0  0  0  0
 27 28  2  0  0  0  0
 29 28  1  0  0  0  0
 29 30  1  0  0  0  0
 31 29  2  0  0  0  0
 32 26  2  0  0  0  0
 32 31  1  0  0  0  0
M  END
>  <minimizedAffinity>
-8.36770725

$$$$
