
 OpenBabel12271915073D

 25 29  0  0  1  0  0  0  0  0999 V2000
    7.0310   48.3950   51.4970 C   0  0  1  0  0  0  0  0  0  0  0  0
    7.4890   46.9640   51.1190 C   0  0  1  0  0  0  0  0  0  0  0  0
    8.3930   46.9750   49.9230 C   0  0  0  0  0  0  0  0  0  0  0  0
    7.6910   47.1310   48.7110 C   0  0  0  0  0  0  0  0  0  0  0  0
    8.3650   47.1570   47.5130 C   0  0  0  0  0  0  0  0  0  0  0  0
    7.8330   47.2780   46.2580 O   0  0  0  0  0  0  0  0  0  0  0  0
    8.9510   46.9270   45.4050 C   0  0  0  0  0  0  0  0  0  0  0  0
   10.1700   47.1010   46.1640 O   0  0  0  0  0  0  0  0  0  0  0  0
    9.7200   47.0600   47.4430 C   0  0  0  0  0  0  0  0  0  0  0  0
   10.4480   46.9310   48.5970 C   0  0  0  0  0  0  0  0  0  0  0  0
    9.8000   46.8720   49.8480 C   0  0  0  0  0  0  0  0  0  0  0  0
   10.7460   46.7110   50.9950 C   0  0  0  0  0  0  0  0  0  0  0  0
   10.2250   45.6570   51.9250 C   0  0  0  0  0  0  0  0  0  0  0  0
    9.2580   46.2860   52.8740 N   0  0  2  0  0  0  0  0  0  0  0  0
    9.5590   47.2500   53.0810 H   0  0  0  0  0  0  0  0  0  0  0  0
    9.2050   45.4810   54.1280 C   0  0  0  0  0  0  0  0  0  0  0  0
    8.2410   44.3460   53.7820 C   0  0  0  0  0  0  0  0  0  0  0  0
    7.4490   44.8240   52.5600 C   0  0  0  0  0  0  0  0  0  0  0  0
    7.8340   46.2880   52.4410 C   0  0  2  0  0  0  0  0  0  0  0  0
    7.0150   47.0750   53.4070 C   0  0  0  0  0  0  0  0  0  0  0  0
    6.5890   48.2150   52.8990 C   0  0  1  0  0  0  0  0  0  0  0  0
    8.1060   49.3160   51.4510 O   0  0  0  0  0  0  0  0  0  0  0  0
    7.8470   50.0230   50.8220 H   0  0  0  0  0  0  0  0  0  0  0  0
    5.8310   49.1000   53.6310 O   0  0  0  0  0  0  0  0  0  0  0  0
    4.4500   49.2480   53.3180 C   0  0  0  0  0  0  0  0  0  0  0  0
  1 22  1  1  0  0  0
  1 21  1  0  0  0  0
  2  1  1  0  0  0  0
  2 19  1  1  0  0  0
  3  2  1  0  0  0  0
  4  3  2  0  0  0  0
  5  4  1  0  0  0  0
  6  5  1  0  0  0  0
  7  8  1  0  0  0  0
  7  6  1  0  0  0  0
  8  9  1  0  0  0  0
  9  5  2  0  0  0  0
  9 10  1  0  0  0  0
 10 11  2  0  0  0  0
 11  3  1  0  0  0  0
 11 12  1  0  0  0  0
 12 13  1  0  0  0  0
 13 14  1  0  0  0  0
 14 19  1  6  0  0  0
 14 15  1  0  0  0  0
 14 16  1  0  0  0  0
 17 16  1  0  0  0  0
 18 17  1  0  0  0  0
 19 18  1  6  0  0  0
 19 20  1  0  0  0  0
 21 20  1  0  0  0  0
 21 24  1  1  0  0  0
 23 22  1  0  0  0  0
 25 24  1  0  0  0  0
M  END
>  <minimizedAffinity>
-7.74440002

$$$$

 OpenBabel12271915073D

 25 29  0  0  1  0  0  0  0  0999 V2000
    9.8330   48.5770   45.5440 C   0  0  1  0  0  0  0  0  0  0  0  0
    8.4370   48.2810   44.9420 C   0  0  1  0  0  0  0  0  0  0  0  0
    7.9660   49.4060   44.0700 C   0  0  0  0  0  0  0  0  0  0  0  0
    7.4760   50.5010   44.8100 C   0  0  0  0  0  0  0  0  0  0  0  0
    6.9960   51.6190   44.1690 C   0  0  0  0  0  0  0  0  0  0  0  0
    6.4710   52.7470   44.7380 O   0  0  0  0  0  0  0  0  0  0  0  0
    5.8600   53.4160   43.6070 C   0  0  0  0  0  0  0  0  0  0  0  0
    6.4720   52.9110   42.3980 O   0  0  0  0  0  0  0  0  0  0  0  0
    6.9950   51.7300   42.8130 C   0  0  0  0  0  0  0  0  0  0  0  0
    7.4830   50.7000   42.0510 C   0  0  0  0  0  0  0  0  0  0  0  0
    7.9600   49.5230   42.6630 C   0  0  0  0  0  0  0  0  0  0  0  0
    8.4360   48.5000   41.6800 C   0  0  0  0  0  0  0  0  0  0  0  0
    7.8980   47.1540   42.0640 C   0  0  0  0  0  0  0  0  0  0  0  0
    8.8120   46.5390   43.0730 N   0  0  2  0  0  0  0  0  0  0  0  0
    9.7830   46.8230   42.8730 H   0  0  0  0  0  0  0  0  0  0  0  0
    8.6860   45.0550   43.0120 C   0  0  0  0  0  0  0  0  0  0  0  0
    7.4420   44.7690   43.8550 C   0  0  0  0  0  0  0  0  0  0  0  0
    7.2240   46.0150   44.7200 C   0  0  0  0  0  0  0  0  0  0  0  0
    8.4890   46.8240   44.4980 C   0  0  2  0  0  0  0  0  0  0  0  0
    9.5630   46.2770   45.3770 C   0  0  0  0  0  0  0  0  0  0  0  0
   10.2920   47.2250   45.9340 C   0  0  1  0  0  0  0  0  0  0  0  0
   10.7150   49.1190   44.5760 O   0  0  0  0  0  0  0  0  0  0  0  0
   11.0210   49.9830   44.9240 H   0  0  0  0  0  0  0  0  0  0  0  0
   11.3480   46.9350   46.7680 O   0  0  0  0  0  0  0  0  0  0  0  0
   11.1310   46.9210   48.1740 C   0  0  0  0  0  0  0  0  0  0  0  0
  1 22  1  6  0  0  0
  1 21  1  0  0  0  0
  2 19  1  6  0  0  0
  2  1  1  0  0  0  0
  3  4  2  0  0  0  0
  3  2  1  0  0  0  0
  5  6  1  0  0  0  0
  5  4  1  0  0  0  0
  7  6  1  0  0  0  0
  8  9  1  0  0  0  0
  8  7  1  0  0  0  0
  9  5  2  0  0  0  0
 10 11  2  0  0  0  0
 10  9  1  0  0  0  0
 11  3  1  0  0  0  0
 12 13  1  0  0  0  0
 12 11  1  0  0  0  0
 13 14  1  0  0  0  0
 14 19  1  1  0  0  0
 15 14  1  0  0  0  0
 16 14  1  0  0  0  0
 16 17  1  0  0  0  0
 17 18  1  0  0  0  0
 19 18  1  1  0  0  0
 19 20  1  0  0  0  0
 20 21  1  0  0  0  0
 21 24  1  6  0  0  0
 22 23  1  0  0  0  0
 24 25  1  0  0  0  0
M  END
>  <minimizedAffinity>
-7.66435909

$$$$

 OpenBabel12271915073D

 25 29  0  0  1  0  0  0  0  0999 V2000
    9.2740   47.7400   50.3530 C   0  0  1  0  0  0  0  0  0  0  0  0
    9.1280   47.3500   51.8450 C   0  0  1  0  0  0  0  0  0  0  0  0
    7.8030   47.7810   52.3980 C   0  0  0  0  0  0  0  0  0  0  0  0
    7.7590   49.1590   52.6960 C   0  0  0  0  0  0  0  0  0  0  0  0
    6.6190   49.7240   53.2170 C   0  0  0  0  0  0  0  0  0  0  0  0
    6.4240   51.0290   53.5780 O   0  0  0  0  0  0  0  0  0  0  0  0
    5.1910   50.9670   54.3360 C   0  0  0  0  0  0  0  0  0  0  0  0
    4.4930   49.7550   53.9660 O   0  0  0  0  0  0  0  0  0  0  0  0
    5.4910   48.9980   53.4440 C   0  0  0  0  0  0  0  0  0  0  0  0
    5.4780   47.6600   53.1480 C   0  0  0  0  0  0  0  0  0  0  0  0
    6.6310   47.0300   52.6370 C   0  0  0  0  0  0  0  0  0  0  0  0
    6.4430   45.5670   52.3900 C   0  0  0  0  0  0  0  0  0  0  0  0
    7.6260   44.8160   52.9250 C   0  0  0  0  0  0  0  0  0  0  0  0
    8.6990   44.8040   51.8870 N   0  0  2  0  0  0  0  0  0  0  0  0
    8.2690   44.7660   50.9510 H   0  0  0  0  0  0  0  0  0  0  0  0
    9.5770   43.6180   52.1010 C   0  0  0  0  0  0  0  0  0  0  0  0
   10.5390   44.0790   53.1960 C   0  0  0  0  0  0  0  0  0  0  0  0
   10.4710   45.6110   53.1970 C   0  0  0  0  0  0  0  0  0  0  0  0
    9.6710   45.9290   51.9470 C   0  0  2  0  0  0  0  0  0  0  0  0
   10.5850   45.8690   50.7690 C   0  0  0  0  0  0  0  0  0  0  0  0
   10.3640   46.8420   49.9070 C   0  0  1  0  0  0  0  0  0  0  0  0
    8.0940   47.4570   49.6220 O   0  0  0  0  0  0  0  0  0  0  0  0
    7.8040   48.3010   49.2160 H   0  0  0  0  0  0  0  0  0  0  0  0
   11.0860   46.9590   48.7420 O   0  0  0  0  0  0  0  0  0  0  0  0
   10.7130   46.1710   47.6170 C   0  0  0  0  0  0  0  0  0  0  0  0
  1 22  1  6  0  0  0
  1  2  1  0  0  0  0
  2 19  1  6  0  0  0
  2  3  1  0  0  0  0
  3 11  2  0  0  0  0
  3  4  1  0  0  0  0
  4  5  2  0  0  0  0
  5  9  1  0  0  0  0
  5  6  1  0  0  0  0
  6  7  1  0  0  0  0
  8  7  1  0  0  0  0
  9  8  1  0  0  0  0
 10  9  2  0  0  0  0
 11 10  1  0  0  0  0
 12 11  1  0  0  0  0
 12 13  1  0  0  0  0
 14 19  1  1  0  0  0
 14 16  1  0  0  0  0
 14 13  1  0  0  0  0
 15 14  1  0  0  0  0
 16 17  1  0  0  0  0
 17 18  1  0  0  0  0
 19 20  1  6  0  0  0
 19 18  1  0  0  0  0
 21 24  1  6  0  0  0
 21  1  1  0  0  0  0
 21 20  1  0  0  0  0
 23 22  1  0  0  0  0
 25 24  1  0  0  0  0
M  END
>  <minimizedAffinity>
-7.52492762

$$$$

 OpenBabel12271915073D

 25 29  0  0  1  0  0  0  0  0999 V2000
    8.4430   43.7860   43.9510 C   0  0  1  0  0  0  0  0  0  0  0  0
    8.8420   45.2810   44.0380 C   0  0  1  0  0  0  0  0  0  0  0  0
    8.0650   46.1140   43.0640 C   0  0  0  0  0  0  0  0  0  0  0  0
    8.5490   46.0040   41.7450 C   0  0  0  0  0  0  0  0  0  0  0  0
    7.9560   46.7070   40.7230 C   0  0  0  0  0  0  0  0  0  0  0  0
    8.3160   46.7260   39.4030 O   0  0  0  0  0  0  0  0  0  0  0  0
    7.5630   47.8520   38.8860 C   0  0  0  0  0  0  0  0  0  0  0  0
    6.4600   48.1090   39.7850 O   0  0  0  0  0  0  0  0  0  0  0  0
    6.8760   47.5090   40.9280 C   0  0  0  0  0  0  0  0  0  0  0  0
    6.3550   47.6290   42.1910 C   0  0  0  0  0  0  0  0  0  0  0  0
    6.9450   46.9490   43.2750 C   0  0  0  0  0  0  0  0  0  0  0  0
    6.2590   47.2100   44.5780 C   0  0  0  0  0  0  0  0  0  0  0  0
    7.2870   47.4890   45.6340 C   0  0  0  0  0  0  0  0  0  0  0  0
    7.7610   46.1910   46.2000 N   0  0  2  0  0  0  0  0  0  0  0  0
    6.9830   45.5150   46.2070 H   0  0  0  0  0  0  0  0  0  0  0  0
    8.2650   46.4120   47.5850 C   0  0  0  0  0  0  0  0  0  0  0  0
    9.6900   46.9240   47.3690 C   0  0  0  0  0  0  0  0  0  0  0  0
   10.0720   46.5140   45.9420 C   0  0  0  0  0  0  0  0  0  0  0  0
    8.9440   45.5860   45.5280 C   0  0  2  0  0  0  0  0  0  0  0  0
    9.2080   44.2320   46.0970 C   0  0  0  0  0  0  0  0  0  0  0  0
    8.9300   43.2630   45.2470 C   0  0  1  0  0  0  0  0  0  0  0  0
    7.0380   43.6260   43.8690 O   0  0  0  0  0  0  0  0  0  0  0  0
    6.8580   43.1240   43.0460 H   0  0  0  0  0  0  0  0  0  0  0  0
    9.0870   41.9370   45.5800 O   0  0  0  0  0  0  0  0  0  0  0  0
    9.1670   40.9700   44.5380 C   0  0  0  0  0  0  0  0  0  0  0  0
  1 22  1  1  0  0  0
  1  2  1  0  0  0  0
  1 21  1  0  0  0  0
  2 19  1  1  0  0  0
  3 11  1  0  0  0  0
  3  2  1  0  0  0  0
  4  3  2  0  0  0  0
  5  9  2  0  0  0  0
  5  4  1  0  0  0  0
  6  5  1  0  0  0  0
  7  6  1  0  0  0  0
  7  8  1  0  0  0  0
  8  9  1  0  0  0  0
  9 10  1  0  0  0  0
 10 11  2  0  0  0  0
 11 12  1  0  0  0  0
 12 13  1  0  0  0  0
 13 14  1  0  0  0  0
 14 19  1  6  0  0  0
 14 15  1  0  0  0  0
 14 16  1  0  0  0  0
 17 16  1  0  0  0  0
 18 17  1  0  0  0  0
 19 18  1  1  0  0  0
 19 20  1  0  0  0  0
 21 24  1  1  0  0  0
 21 20  1  0  0  0  0
 23 22  1  0  0  0  0
 25 24  1  0  0  0  0
M  END
>  <minimizedAffinity>
-7.50017309

$$$$

 OpenBabel12271915073D

 25 29  0  0  1  0  0  0  0  0999 V2000
   10.8950   47.8540   50.6380 C   0  0  1  0  0  0  0  0  0  0  0  0
    9.4080   47.5720   50.3060 C   0  0  1  0  0  0  0  0  0  0  0  0
    9.2640   46.3890   49.3960 C   0  0  0  0  0  0  0  0  0  0  0  0
    9.5650   46.6940   48.0530 C   0  0  0  0  0  0  0  0  0  0  0  0
    9.4790   45.7260   47.0810 C   0  0  0  0  0  0  0  0  0  0  0  0
    9.7140   45.8650   45.7400 O   0  0  0  0  0  0  0  0  0  0  0  0
    9.1700   44.6370   45.1940 C   0  0  0  0  0  0  0  0  0  0  0  0
    9.1020   43.6610   46.2590 O   0  0  0  0  0  0  0  0  0  0  0  0
    9.1300   44.4420   47.3680 C   0  0  0  0  0  0  0  0  0  0  0  0
    8.8510   44.0920   48.6630 C   0  0  0  0  0  0  0  0  0  0  0  0
    8.9000   45.0570   49.6900 C   0  0  0  0  0  0  0  0  0  0  0  0
    8.5490   44.5030   51.0350 C   0  0  0  0  0  0  0  0  0  0  0  0
    7.6000   45.4370   51.7250 C   0  0  0  0  0  0  0  0  0  0  0  0
    8.3880   46.4980   52.4210 N   0  0  2  0  0  0  0  0  0  0  0  0
    9.2750   46.0980   52.7610 H   0  0  0  0  0  0  0  0  0  0  0  0
    7.5910   47.0330   53.5620 C   0  0  0  0  0  0  0  0  0  0  0  0
    6.6620   48.0520   52.9010 C   0  0  0  0  0  0  0  0  0  0  0  0
    7.2960   48.3830   51.5450 C   0  0  0  0  0  0  0  0  0  0  0  0
    8.6630   47.7260   51.6260 C   0  0  2  0  0  0  0  0  0  0  0  0
    9.5770   48.6240   52.3880 C   0  0  0  0  0  0  0  0  0  0  0  0
   10.7840   48.6860   51.8580 C   0  0  1  0  0  0  0  0  0  0  0  0
   11.5980   46.6610   50.9370 O   0  0  0  0  0  0  0  0  0  0  0  0
   12.3490   46.6100   50.3090 H   0  0  0  0  0  0  0  0  0  0  0  0
   11.7860   49.4450   52.4170 O   0  0  0  0  0  0  0  0  0  0  0  0
   12.9140   49.7920   51.6200 C   0  0  0  0  0  0  0  0  0  0  0  0
  1 22  1  1  0  0  0
  1 21  1  0  0  0  0
  2  1  1  0  0  0  0
  2 19  1  1  0  0  0
  3 11  1  0  0  0  0
  3  2  1  0  0  0  0
  4  3  2  0  0  0  0
  5  9  2  0  0  0  0
  5  4  1  0  0  0  0
  6  5  1  0  0  0  0
  7  6  1  0  0  0  0
  7  8  1  0  0  0  0
  8  9  1  0  0  0  0
  9 10  1  0  0  0  0
 10 11  2  0  0  0  0
 11 12  1  0  0  0  0
 12 13  1  0  0  0  0
 13 14  1  0  0  0  0
 14 19  1  6  0  0  0
 14 15  1  0  0  0  0
 14 16  1  0  0  0  0
 17 16  1  0  0  0  0
 18 17  1  0  0  0  0
 19 18  1  6  0  0  0
 19 20  1  0  0  0  0
 21 20  1  0  0  0  0
 21 24  1  1  0  0  0
 23 22  1  0  0  0  0
 25 24  1  0  0  0  0
M  END
>  <minimizedAffinity>
-7.49722719

$$$$

 OpenBabel12271915073D

 25 29  0  0  1  0  0  0  0  0999 V2000
    8.6100   49.0470   43.2640 C   0  0  1  0  0  0  0  0  0  0  0  0
    7.7620   47.7960   43.6090 C   0  0  1  0  0  0  0  0  0  0  0  0
    8.1980   46.6030   42.8140 C   0  0  0  0  0  0  0  0  0  0  0  0
    7.7220   46.6280   41.4870 C   0  0  0  0  0  0  0  0  0  0  0  0
    8.0220   45.6050   40.6190 C   0  0  0  0  0  0  0  0  0  0  0  0
    7.6230   45.4710   39.3170 O   0  0  0  0  0  0  0  0  0  0  0  0
    7.9600   44.0930   39.0230 C   0  0  0  0  0  0  0  0  0  0  0  0
    8.9600   43.6590   39.9740 O   0  0  0  0  0  0  0  0  0  0  0  0
    8.8010   44.5510   40.9840 C   0  0  0  0  0  0  0  0  0  0  0  0
    9.3060   44.4940   42.2570 C   0  0  0  0  0  0  0  0  0  0  0  0
    9.0030   45.5050   43.1920 C   0  0  0  0  0  0  0  0  0  0  0  0
    9.6220   45.2720   44.5330 C   0  0  0  0  0  0  0  0  0  0  0  0
    8.6010   45.5240   45.6030 C   0  0  0  0  0  0  0  0  0  0  0  0
    8.5840   46.9830   45.9180 N   0  0  2  0  0  0  0  0  0  0  0  0
    9.5360   47.3660   45.8200 H   0  0  0  0  0  0  0  0  0  0  0  0
    8.0900   47.1800   47.3110 C   0  0  0  0  0  0  0  0  0  0  0  0
    6.5700   47.1180   47.1620 C   0  0  0  0  0  0  0  0  0  0  0  0
    6.2810   47.3720   45.6780 C   0  0  0  0  0  0  0  0  0  0  0  0
    7.6280   47.8050   45.1270 C   0  0  2  0  0  0  0  0  0  0  0  0
    7.8270   49.2500   45.4410 C   0  0  0  0  0  0  0  0  0  0  0  0
    8.3640   49.9160   44.4370 C   0  0  1  0  0  0  0  0  0  0  0  0
    9.9890   48.7360   43.1820 O   0  0  0  0  0  0  0  0  0  0  0  0
   10.2860   49.0010   42.2860 H   0  0  0  0  0  0  0  0  0  0  0  0
    8.6480   51.2600   44.5250 O   0  0  0  0  0  0  0  0  0  0  0  0
    7.6530   52.1430   45.0310 C   0  0  0  0  0  0  0  0  0  0  0  0
  1 22  1  1  0  0  0
  1  2  1  0  0  0  0
  1 21  1  0  0  0  0
  2 19  1  1  0  0  0
  3 11  1  0  0  0  0
  3  2  1  0  0  0  0
  4  3  2  0  0  0  0
  5  9  2  0  0  0  0
  5  4  1  0  0  0  0
  6  5  1  0  0  0  0
  7  6  1  0  0  0  0
  7  8  1  0  0  0  0
  8  9  1  0  0  0  0
  9 10  1  0  0  0  0
 10 11  2  0  0  0  0
 11 12  1  0  0  0  0
 12 13  1  0  0  0  0
 13 14  1  0  0  0  0
 14 19  1  6  0  0  0
 14 16  1  0  0  0  0
 15 14  1  0  0  0  0
 17 16  1  0  0  0  0
 18 17  1  0  0  0  0
 19 20  1  1  0  0  0
 19 18  1  0  0  0  0
 21 24  1  1  0  0  0
 21 20  1  0  0  0  0
 23 22  1  0  0  0  0
 24 25  1  0  0  0  0
M  END
>  <minimizedAffinity>
-7.49405766

$$$$

 OpenBabel12271915073D

 25 29  0  0  1  0  0  0  0  0999 V2000
    9.0890   44.7110   42.6450 C   0  0  1  0  0  0  0  0  0  0  0  0
    8.2820   45.7940   43.4040 C   0  0  1  0  0  0  0  0  0  0  0  0
    9.0750   46.3760   44.5350 C   0  0  0  0  0  0  0  0  0  0  0  0
    9.1130   45.5340   45.6650 C   0  0  0  0  0  0  0  0  0  0  0  0
    9.7920   45.9150   46.7980 C   0  0  0  0  0  0  0  0  0  0  0  0
    9.9050   45.2270   47.9750 O   0  0  0  0  0  0  0  0  0  0  0  0
   10.4400   46.2290   48.8760 C   0  0  0  0  0  0  0  0  0  0  0  0
   11.0590   47.2670   48.0820 O   0  0  0  0  0  0  0  0  0  0  0  0
   10.4690   47.0930   46.8720 C   0  0  0  0  0  0  0  0  0  0  0  0
   10.4810   47.9350   45.7910 C   0  0  0  0  0  0  0  0  0  0  0  0
    9.7770   47.5990   44.6160 C   0  0  0  0  0  0  0  0  0  0  0  0
    9.8840   48.6400   43.5480 C   0  0  0  0  0  0  0  0  0  0  0  0
    8.5280   48.8900   42.9590 C   0  0  0  0  0  0  0  0  0  0  0  0
    8.2750   47.8830   41.8850 N   0  0  2  0  0  0  0  0  0  0  0  0
    9.1620   47.6580   41.4110 H   0  0  0  0  0  0  0  0  0  0  0  0
    7.2950   48.4390   40.9090 C   0  0  0  0  0  0  0  0  0  0  0  0
    5.9430   48.1790   41.5740 C   0  0  0  0  0  0  0  0  0  0  0  0
    6.1930   47.0900   42.6240 C   0  0  0  0  0  0  0  0  0  0  0  0
    7.6060   46.6260   42.3210 C   0  0  2  0  0  0  0  0  0  0  0  0
    7.5560   45.6620   41.1830 C   0  0  0  0  0  0  0  0  0  0  0  0
    8.3630   44.6330   41.3570 C   0  0  1  0  0  0  0  0  0  0  0  0
   10.4260   45.1210   42.4150 O   0  0  0  0  0  0  0  0  0  0  0  0
   11.0040   44.4420   42.8230 H   0  0  0  0  0  0  0  0  0  0  0  0
    8.4820   43.6360   40.4170 O   0  0  0  0  0  0  0  0  0  0  0  0
    8.1310   43.9160   39.0660 C   0  0  0  0  0  0  0  0  0  0  0  0
  1 22  1  6  0  0  0
  1  2  1  0  0  0  0
  2 19  1  6  0  0  0
  2  3  1  0  0  0  0
  3 11  2  0  0  0  0
  3  4  1  0  0  0  0
  4  5  2  0  0  0  0
  5  9  1  0  0  0  0
  5  6  1  0  0  0  0
  6  7  1  0  0  0  0
  8  7  1  0  0  0  0
  9  8  1  0  0  0  0
 10  9  2  0  0  0  0
 11 10  1  0  0  0  0
 12 11  1  0  0  0  0
 13 12  1  0  0  0  0
 14 19  1  1  0  0  0
 14 13  1  0  0  0  0
 15 14  1  0  0  0  0
 16 17  1  0  0  0  0
 16 14  1  0  0  0  0
 17 18  1  0  0  0  0
 19 20  1  6  0  0  0
 19 18  1  0  0  0  0
 20 21  1  0  0  0  0
 21 24  1  6  0  0  0
 21  1  1  0  0  0  0
 22 23  1  0  0  0  0
 25 24  1  0  0  0  0
M  END
>  <minimizedAffinity>
-7.3312273

$$$$

 OpenBabel12271915073D

 25 29  0  0  1  0  0  0  0  0999 V2000
   10.5380   47.6180   48.7170 C   0  0  1  0  0  0  0  0  0  0  0  0
    9.2440   46.7670   48.6980 C   0  0  1  0  0  0  0  0  0  0  0  0
    8.9130   46.3010   47.3130 C   0  0  0  0  0  0  0  0  0  0  0  0
    8.3260   47.3120   46.5240 C   0  0  0  0  0  0  0  0  0  0  0  0
    7.9530   47.0560   45.2260 C   0  0  0  0  0  0  0  0  0  0  0  0
    7.3570   47.9150   44.3430 O   0  0  0  0  0  0  0  0  0  0  0  0
    6.9230   47.0270   43.2820 C   0  0  0  0  0  0  0  0  0  0  0  0
    7.7030   45.8120   43.3620 O   0  0  0  0  0  0  0  0  0  0  0  0
    8.1520   45.8430   44.6420 C   0  0  0  0  0  0  0  0  0  0  0  0
    8.7410   44.8360   45.3620 C   0  0  0  0  0  0  0  0  0  0  0  0
    9.1160   45.0430   46.7050 C   0  0  0  0  0  0  0  0  0  0  0  0
    9.7240   43.8330   47.3390 C   0  0  0  0  0  0  0  0  0  0  0  0
    9.1280   43.6310   48.7000 C   0  0  0  0  0  0  0  0  0  0  0  0
    9.8800   44.4660   49.6840 N   0  0  2  0  0  0  0  0  0  0  0  0
   10.8710   44.5150   49.4060 H   0  0  0  0  0  0  0  0  0  0  0  0
    9.7540   43.8600   51.0410 C   0  0  0  0  0  0  0  0  0  0  0  0
    8.3990   44.3670   51.5340 C   0  0  0  0  0  0  0  0  0  0  0  0
    8.0630   45.5840   50.6640 C   0  0  0  0  0  0  0  0  0  0  0  0
    9.3520   45.8410   49.9040 C   0  0  2  0  0  0  0  0  0  0  0  0
   10.2820   46.6010   50.7890 C   0  0  0  0  0  0  0  0  0  0  0  0
   10.9270   47.5540   50.1440 C   0  0  1  0  0  0  0  0  0  0  0  0
   11.5560   47.0370   47.9200 O   0  0  0  0  0  0  0  0  0  0  0  0
   11.8130   47.7100   47.2540 H   0  0  0  0  0  0  0  0  0  0  0  0
   11.8460   48.3630   50.7720 O   0  0  0  0  0  0  0  0  0  0  0  0
   11.5820   48.8080   52.0980 C   0  0  0  0  0  0  0  0  0  0  0  0
  1 22  1  6  0  0  0
  1 21  1  0  0  0  0
  2  1  1  0  0  0  0
  2 19  1  1  0  0  0
  3  2  1  0  0  0  0
  4  3  2  0  0  0  0
  5  4  1  0  0  0  0
  6  5  1  0  0  0  0
  7  8  1  0  0  0  0
  7  6  1  0  0  0  0
  8  9  1  0  0  0  0
  9  5  2  0  0  0  0
  9 10  1  0  0  0  0
 10 11  2  0  0  0  0
 11  3  1  0  0  0  0
 11 12  1  0  0  0  0
 12 13  1  0  0  0  0
 13 14  1  0  0  0  0
 14 19  1  1  0  0  0
 14 16  1  0  0  0  0
 15 14  1  0  0  0  0
 16 17  1  0  0  0  0
 18 17  1  0  0  0  0
 19 18  1  1  0  0  0
 19 20  1  0  0  0  0
 21 24  1  6  0  0  0
 21 20  1  0  0  0  0
 23 22  1  0  0  0  0
 24 25  1  0  0  0  0
M  END
>  <minimizedAffinity>
-7.23293734

$$$$

 OpenBabel12271915073D

 25 29  0  0  1  0  0  0  0  0999 V2000
   10.7630   45.4400   52.3400 C   0  0  1  0  0  0  0  0  0  0  0  0
   10.2770   46.8740   52.0090 C   0  0  1  0  0  0  0  0  0  0  0  0
    9.7290   46.9590   50.6160 C   0  0  0  0  0  0  0  0  0  0  0  0
   10.7390   47.0160   49.6350 C   0  0  0  0  0  0  0  0  0  0  0  0
   10.4140   47.1040   48.3020 C   0  0  0  0  0  0  0  0  0  0  0  0
   11.2690   47.1880   47.2370 O   0  0  0  0  0  0  0  0  0  0  0  0
   10.3880   47.5710   46.1530 C   0  0  0  0  0  0  0  0  0  0  0  0
    9.0360   47.2130   46.5220 O   0  0  0  0  0  0  0  0  0  0  0  0
    9.1230   47.1140   47.8720 C   0  0  0  0  0  0  0  0  0  0  0  0
    8.1060   47.0370   48.7880 C   0  0  0  0  0  0  0  0  0  0  0  0
    8.3900   46.9740   50.1670 C   0  0  0  0  0  0  0  0  0  0  0  0
    7.1620   46.9140   51.0190 C   0  0  0  0  0  0  0  0  0  0  0  0
    7.3060   47.8680   52.1670 C   0  0  0  0  0  0  0  0  0  0  0  0
    8.0460   47.1870   53.2700 N   0  0  2  0  0  0  0  0  0  0  0  0
    7.8010   46.1860   53.2790 H   0  0  0  0  0  0  0  0  0  0  0  0
    7.6810   47.8190   54.5710 C   0  0  0  0  0  0  0  0  0  0  0  0
    8.5800   49.0540   54.6300 C   0  0  0  0  0  0  0  0  0  0  0  0
    9.7130   48.8000   53.6300 C   0  0  0  0  0  0  0  0  0  0  0  0
    9.5260   47.3420   53.2490 C   0  0  2  0  0  0  0  0  0  0  0  0
   10.1360   46.4910   54.3130 C   0  0  0  0  0  0  0  0  0  0  0  0
   10.7970   45.4610   53.8190 C   0  0  1  0  0  0  0  0  0  0  0  0
    9.8400   44.4610   51.8970 O   0  0  0  0  0  0  0  0  0  0  0  0
   10.3280   43.8640   51.2920 H   0  0  0  0  0  0  0  0  0  0  0  0
   11.4200   44.5420   54.6310 O   0  0  0  0  0  0  0  0  0  0  0  0
   12.7170   44.0750   54.2740 C   0  0  0  0  0  0  0  0  0  0  0  0
  1 22  1  1  0  0  0
  1 21  1  0  0  0  0
  2  1  1  0  0  0  0
  2 19  1  1  0  0  0
  3  2  1  0  0  0  0
  4  3  2  0  0  0  0
  5  4  1  0  0  0  0
  6  5  1  0  0  0  0
  7  8  1  0  0  0  0
  7  6  1  0  0  0  0
  8  9  1  0  0  0  0
  9  5  2  0  0  0  0
  9 10  1  0  0  0  0
 10 11  2  0  0  0  0
 11  3  1  0  0  0  0
 11 12  1  0  0  0  0
 12 13  1  0  0  0  0
 13 14  1  0  0  0  0
 14 19  1  6  0  0  0
 14 15  1  0  0  0  0
 14 16  1  0  0  0  0
 16 17  1  0  0  0  0
 18 17  1  0  0  0  0
 19 18  1  1  0  0  0
 19 20  1  0  0  0  0
 21 20  1  0  0  0  0
 21 24  1  1  0  0  0
 23 22  1  0  0  0  0
 25 24  1  0  0  0  0
M  END
>  <minimizedAffinity>
-7.23207569

$$$$
