
 OpenBabel12271915073D

 27 29  0  0  1  0  0  0  0  0999 V2000
    7.2310   49.0200   43.7790 C   0  0  1  0  0  0  0  0  0  0  0  0
    7.3810   47.5860   43.5630 N   0  0  0  0  0  0  0  0  0  0  0  0
    7.3960   47.1850   42.5630 H   0  0  0  0  0  0  0  0  0  0  0  0
    8.7410   47.2510   44.2030 O   0  0  0  0  0  0  0  0  0  0  0  0
    8.8030   48.2790   45.2720 C   0  0  2  0  0  0  0  0  0  0  0  0
   10.1670   48.2740   45.8910 C   0  0  1  0  0  0  0  0  0  0  0  0
   10.4530   46.8840   46.4070 C   0  0  2  0  0  0  0  0  0  0  0  0
    9.3940   46.4700   47.4240 C   0  0  1  0  0  0  0  0  0  0  0  0
    7.9720   46.7790   46.9940 C   0  0  2  0  0  0  0  0  0  0  0  0
    7.8300   48.0550   46.3290 O   0  0  0  0  0  0  0  0  0  0  0  0
    8.3970   49.5220   44.5910 C   0  0  0  0  0  0  0  0  0  0  0  0
    7.0030   49.7850   42.5070 C   0  0  0  0  0  0  0  0  0  0  0  0
    6.5100   49.1210   41.3910 C   0  0  0  0  0  0  0  0  0  0  0  0
    6.2620   49.8200   40.2090 C   0  0  0  0  0  0  0  0  0  0  0  0
    6.4910   51.1950   40.1470 C   0  0  0  0  0  0  0  0  0  0  0  0
    6.2160   51.9040   38.8590 C   0  0  0  0  0  0  0  0  0  0  0  0
    6.9950   51.8540   41.2580 C   0  0  0  0  0  0  0  0  0  0  0  0
    7.2410   51.1670   42.4380 C   0  0  0  0  0  0  0  0  0  0  0  0
   11.7410   46.8550   47.0870 O   0  0  0  0  0  0  0  0  0  0  0  0
   11.7370   46.0180   47.5850 H   0  0  0  0  0  0  0  0  0  0  0  0
   11.1620   48.6830   44.9120 O   0  0  0  0  0  0  0  0  0  0  0  0
   11.7900   49.2130   45.4260 H   0  0  0  0  0  0  0  0  0  0  0  0
    9.5040   45.0300   47.6280 O   0  0  0  0  0  0  0  0  0  0  0  0
    8.9800   44.5910   46.9330 H   0  0  0  0  0  0  0  0  0  0  0  0
    7.0770   46.8800   48.2080 C   0  0  0  0  0  0  0  0  0  0  0  0
    6.3650   48.1450   48.1790 O   0  0  0  0  0  0  0  0  0  0  0  0
    6.4680   48.5530   49.0550 H   0  0  0  0  0  0  0  0  0  0  0  0
  1 12  1  6  0  0  0
  1 11  1  0  0  0  0
  2  1  1  0  0  0  0
  2  4  1  0  0  0  0
  3  2  1  0  0  0  0
  4  5  1  0  0  0  0
  5 11  1  6  0  0  0
  5 10  1  0  0  0  0
  6  5  1  6  0  0  0
  6  7  1  0  0  0  0
  7 19  1  1  0  0  0
  7  8  1  0  0  0  0
  8 23  1  6  0  0  0
  9  8  1  0  0  0  0
  9 25  1  1  0  0  0
 10  9  1  0  0  0  0
 13 12  2  0  0  0  0
 14 13  1  0  0  0  0
 15 14  2  0  0  0  0
 15 17  1  0  0  0  0
 16 15  1  0  0  0  0
 17 18  2  0  0  0  0
 18 12  1  0  0  0  0
 19 20  1  0  0  0  0
 21 22  1  0  0  0  0
 21  6  1  0  0  0  0
 24 23  1  0  0  0  0
 26 25  1  0  0  0  0
 26 27  1  0  0  0  0
M  END
>  <minimizedAffinity>
-9.47312546

$$$$

 OpenBabel12271915073D

 27 29  0  0  1  0  0  0  0  0999 V2000
    8.5200   49.6190   45.0720 C   0  0  1  0  0  0  0  0  0  0  0  0
    7.3940   48.9630   45.7250 N   0  0  0  0  0  0  0  0  0  0  0  0
    6.3840   49.2730   45.5120 H   0  0  0  0  0  0  0  0  0  0  0  0
    7.5140   47.4910   45.2900 O   0  0  0  0  0  0  0  0  0  0  0  0
    8.9830   47.3750   45.1100 C   0  0  2  0  0  0  0  0  0  0  0  0
    9.3060   46.0620   44.4670 C   0  0  1  0  0  0  0  0  0  0  0  0
    8.7390   44.9560   45.3260 C   0  0  2  0  0  0  0  0  0  0  0  0
    9.3220   45.0300   46.7330 C   0  0  1  0  0  0  0  0  0  0  0  0
    9.3470   46.4290   47.3190 C   0  0  2  0  0  0  0  0  0  0  0  0
    9.7130   47.4520   46.3660 O   0  0  0  0  0  0  0  0  0  0  0  0
    9.3420   48.5850   44.3470 C   0  0  0  0  0  0  0  0  0  0  0  0
    8.1060   50.7770   44.2120 C   0  0  0  0  0  0  0  0  0  0  0  0
    8.0590   52.0530   44.7610 C   0  0  0  0  0  0  0  0  0  0  0  0
    7.7070   53.1470   43.9690 C   0  0  0  0  0  0  0  0  0  0  0  0
    7.4160   52.9690   42.6170 C   0  0  0  0  0  0  0  0  0  0  0  0
    7.0380   54.1690   41.8080 C   0  0  0  0  0  0  0  0  0  0  0  0
    7.4500   51.6940   42.0730 C   0  0  0  0  0  0  0  0  0  0  0  0
    7.8030   50.6010   42.8520 C   0  0  0  0  0  0  0  0  0  0  0  0
    9.0980   43.6570   44.7740 O   0  0  0  0  0  0  0  0  0  0  0  0
    8.9130   43.0260   45.4930 H   0  0  0  0  0  0  0  0  0  0  0  0
    8.7540   46.0150   43.1220 O   0  0  0  0  0  0  0  0  0  0  0  0
    9.4250   45.5370   42.6110 H   0  0  0  0  0  0  0  0  0  0  0  0
    8.5070   44.1880   47.6020 O   0  0  0  0  0  0  0  0  0  0  0  0
    7.7520   44.7220   47.9090 H   0  0  0  0  0  0  0  0  0  0  0  0
   10.4010   46.5180   48.3980 C   0  0  0  0  0  0  0  0  0  0  0  0
   11.5240   47.3000   47.9120 O   0  0  0  0  0  0  0  0  0  0  0  0
   12.3320   46.7930   48.1020 H   0  0  0  0  0  0  0  0  0  0  0  0
  1 12  1  6  0  0  0
  1  2  1  0  0  0  0
  3  2  1  0  0  0  0
  4  2  1  0  0  0  0
  5 11  1  6  0  0  0
  5  4  1  0  0  0  0
  5 10  1  0  0  0  0
  6  5  1  1  0  0  0
  6  7  1  0  0  0  0
  7 19  1  6  0  0  0
  7  8  1  0  0  0  0
  8  9  1  0  0  0  0
  8 23  1  1  0  0  0
  9 25  1  1  0  0  0
 10  9  1  0  0  0  0
 11  1  1  0  0  0  0
 12 13  1  0  0  0  0
 14 13  2  0  0  0  0
 15 14  1  0  0  0  0
 16 15  1  0  0  0  0
 17 15  2  0  0  0  0
 17 18  1  0  0  0  0
 18 12  2  0  0  0  0
 19 20  1  0  0  0  0
 21  6  1  0  0  0  0
 22 21  1  0  0  0  0
 23 24  1  0  0  0  0
 26 27  1  0  0  0  0
 26 25  1  0  0  0  0
M  END
>  <minimizedAffinity>
-8.75554943

$$$$

 OpenBabel12271915073D

 27 29  0  0  1  0  0  0  0  0999 V2000
    8.3620   48.7440   45.3800 C   0  0  1  0  0  0  0  0  0  0  0  0
    7.2860   48.5050   46.3340 N   0  0  0  0  0  0  0  0  0  0  0  0
    6.2630   48.7040   46.0620 H   0  0  0  0  0  0  0  0  0  0  0  0
    7.3860   46.9990   46.6390 O   0  0  0  0  0  0  0  0  0  0  0  0
    8.8400   46.7730   46.4470 C   0  0  2  0  0  0  0  0  0  0  0  0
    9.1260   45.3040   46.4830 C   0  0  1  0  0  0  0  0  0  0  0  0
    8.6240   44.7500   47.7950 C   0  0  2  0  0  0  0  0  0  0  0  0
    9.2990   45.4640   48.9620 C   0  0  1  0  0  0  0  0  0  0  0  0
    9.3550   46.9730   48.8130 C   0  0  2  0  0  0  0  0  0  0  0  0
    9.6510   47.4140   47.4690 O   0  0  0  0  0  0  0  0  0  0  0  0
    9.1410   47.4690   45.1820 C   0  0  0  0  0  0  0  0  0  0  0  0
    7.8860   49.3700   44.1020 C   0  0  0  0  0  0  0  0  0  0  0  0
    7.4390   48.5560   43.0690 C   0  0  0  0  0  0  0  0  0  0  0  0
    6.9620   49.1200   41.8840 C   0  0  0  0  0  0  0  0  0  0  0  0
    6.9160   50.5060   41.7370 C   0  0  0  0  0  0  0  0  0  0  0  0
    6.4030   51.0670   40.4490 C   0  0  0  0  0  0  0  0  0  0  0  0
    7.3750   51.3180   42.7640 C   0  0  0  0  0  0  0  0  0  0  0  0
    7.8470   50.7650   43.9460 C   0  0  0  0  0  0  0  0  0  0  0  0
    8.9530   43.3360   47.9030 O   0  0  0  0  0  0  0  0  0  0  0  0
    8.8200   43.1230   48.8440 H   0  0  0  0  0  0  0  0  0  0  0  0
    8.4870   44.6420   45.3570 O   0  0  0  0  0  0  0  0  0  0  0  0
    9.1250   43.9620   45.0920 H   0  0  0  0  0  0  0  0  0  0  0  0
    8.5490   45.1540   50.1730 O   0  0  0  0  0  0  0  0  0  0  0  0
    7.8130   45.7890   50.2370 H   0  0  0  0  0  0  0  0  0  0  0  0
   10.4780   47.5330   49.6550 C   0  0  0  0  0  0  0  0  0  0  0  0
   11.5820   47.9160   48.7940 O   0  0  0  0  0  0  0  0  0  0  0  0
   12.3910   47.5310   49.1730 H   0  0  0  0  0  0  0  0  0  0  0  0
  1 12  1  6  0  0  0
  1  2  1  0  0  0  0
  2  4  1  0  0  0  0
  3  2  1  0  0  0  0
  5 11  1  6  0  0  0
  5  4  1  0  0  0  0
  5 10  1  0  0  0  0
  6  5  1  1  0  0  0
  6  7  1  0  0  0  0
  7 19  1  6  0  0  0
  7  8  1  0  0  0  0
  8 23  1  1  0  0  0
  9  8  1  0  0  0  0
  9 25  1  1  0  0  0
 10  9  1  0  0  0  0
 11  1  1  0  0  0  0
 13 12  2  0  0  0  0
 14 13  1  0  0  0  0
 15 14  2  0  0  0  0
 15 17  1  0  0  0  0
 16 15  1  0  0  0  0
 17 18  2  0  0  0  0
 18 12  1  0  0  0  0
 19 20  1  0  0  0  0
 21  6  1  0  0  0  0
 22 21  1  0  0  0  0
 23 24  1  0  0  0  0
 26 27  1  0  0  0  0
 26 25  1  0  0  0  0
M  END
>  <minimizedAffinity>
-8.67133427

$$$$

 OpenBabel12271915073D

 27 29  0  0  1  0  0  0  0  0999 V2000
    8.3000   48.7610   45.4040 C   0  0  1  0  0  0  0  0  0  0  0  0
    7.2400   48.4990   46.3700 N   0  0  0  0  0  0  0  0  0  0  0  0
    6.2110   48.6880   46.1140 H   0  0  0  0  0  0  0  0  0  0  0  0
    7.3620   46.9910   46.6600 O   0  0  0  0  0  0  0  0  0  0  0  0
    8.8160   46.7850   46.4450 C   0  0  2  0  0  0  0  0  0  0  0  0
    9.1210   45.3200   46.4620 C   0  0  1  0  0  0  0  0  0  0  0  0
    8.6440   44.7470   47.7760 C   0  0  2  0  0  0  0  0  0  0  0  0
    9.3270   45.4580   48.9400 C   0  0  1  0  0  0  0  0  0  0  0  0
    9.3620   46.9690   48.8060 C   0  0  2  0  0  0  0  0  0  0  0  0
    9.6340   47.4270   47.4620 O   0  0  0  0  0  0  0  0  0  0  0  0
    9.0900   47.4970   45.1830 C   0  0  0  0  0  0  0  0  0  0  0  0
    7.7980   49.3920   44.1380 C   0  0  0  0  0  0  0  0  0  0  0  0
    7.7890   50.7770   44.0240 C   0  0  0  0  0  0  0  0  0  0  0  0
    7.3550   51.3820   42.8430 C   0  0  0  0  0  0  0  0  0  0  0  0
    6.9430   50.5990   41.7640 C   0  0  0  0  0  0  0  0  0  0  0  0
    6.4820   51.2900   40.5210 C   0  0  0  0  0  0  0  0  0  0  0  0
    6.9400   49.2180   41.8850 C   0  0  0  0  0  0  0  0  0  0  0  0
    7.3730   48.6080   43.0540 C   0  0  0  0  0  0  0  0  0  0  0  0
    8.9920   43.3360   47.8660 O   0  0  0  0  0  0  0  0  0  0  0  0
    8.8740   43.1130   48.8070 H   0  0  0  0  0  0  0  0  0  0  0  0
    8.4730   44.6600   45.3390 O   0  0  0  0  0  0  0  0  0  0  0  0
    9.1160   43.9910   45.0590 H   0  0  0  0  0  0  0  0  0  0  0  0
    8.5970   45.1270   50.1590 O   0  0  0  0  0  0  0  0  0  0  0  0
    7.8550   45.7530   50.2390 H   0  0  0  0  0  0  0  0  0  0  0  0
   10.4900   47.5340   49.6370 C   0  0  0  0  0  0  0  0  0  0  0  0
   11.6000   47.8860   48.7690 O   0  0  0  0  0  0  0  0  0  0  0  0
   12.4030   47.5010   49.1580 H   0  0  0  0  0  0  0  0  0  0  0  0
  1 12  1  6  0  0  0
  1  2  1  0  0  0  0
  2  4  1  0  0  0  0
  3  2  1  0  0  0  0
  5 11  1  6  0  0  0
  5  4  1  0  0  0  0
  5 10  1  0  0  0  0
  6  5  1  1  0  0  0
  6  7  1  0  0  0  0
  7 19  1  6  0  0  0
  7  8  1  0  0  0  0
  8 23  1  1  0  0  0
  9  8  1  0  0  0  0
  9 25  1  1  0  0  0
 10  9  1  0  0  0  0
 11  1  1  0  0  0  0
 13 12  1  0  0  0  0
 14 13  2  0  0  0  0
 15 17  2  0  0  0  0
 15 14  1  0  0  0  0
 16 15  1  0  0  0  0
 17 18  1  0  0  0  0
 18 12  2  0  0  0  0
 19 20  1  0  0  0  0
 21  6  1  0  0  0  0
 22 21  1  0  0  0  0
 23 24  1  0  0  0  0
 26 27  1  0  0  0  0
 26 25  1  0  0  0  0
M  END
>  <minimizedAffinity>
-8.66633701

$$$$

 OpenBabel12271915073D

 27 29  0  0  1  0  0  0  0  0999 V2000
    7.8200   47.6890   44.0040 C   0  0  1  0  0  0  0  0  0  0  0  0
    8.9630   48.2070   44.7460 N   0  0  0  0  0  0  0  0  0  0  0  0
    9.3650   49.1800   44.5170 H   0  0  0  0  0  0  0  0  0  0  0  0
    8.4710   48.2560   46.2040 O   0  0  0  0  0  0  0  0  0  0  0  0
    7.4950   47.1380   46.2040 C   0  0  2  0  0  0  0  0  0  0  0  0
    6.7250   47.1460   47.4880 C   0  0  1  0  0  0  0  0  0  0  0  0
    7.7050   47.0590   48.6340 C   0  0  2  0  0  0  0  0  0  0  0  0
    8.5460   45.7920   48.5140 C   0  0  1  0  0  0  0  0  0  0  0  0
    9.0770   45.5350   47.1170 C   0  0  2  0  0  0  0  0  0  0  0  0
    8.1280   45.8350   46.0690 O   0  0  0  0  0  0  0  0  0  0  0  0
    6.7150   47.3500   44.9710 C   0  0  0  0  0  0  0  0  0  0  0  0
    7.3910   48.5900   42.8830 C   0  0  0  0  0  0  0  0  0  0  0  0
    6.8250   48.0360   41.7410 C   0  0  0  0  0  0  0  0  0  0  0  0
    6.3910   48.8590   40.7010 C   0  0  0  0  0  0  0  0  0  0  0  0
    6.5070   50.2450   40.8080 C   0  0  0  0  0  0  0  0  0  0  0  0
    6.0330   51.0880   39.6680 C   0  0  0  0  0  0  0  0  0  0  0  0
    7.0840   50.7960   41.9430 C   0  0  0  0  0  0  0  0  0  0  0  0
    7.5150   49.9850   42.9830 C   0  0  0  0  0  0  0  0  0  0  0  0
    6.9910   46.9870   49.9020 O   0  0  0  0  0  0  0  0  0  0  0  0
    7.6610   46.6940   50.5450 H   0  0  0  0  0  0  0  0  0  0  0  0
    5.9190   48.3540   47.5800 O   0  0  0  0  0  0  0  0  0  0  0  0
    5.0990   48.0560   48.0040 H   0  0  0  0  0  0  0  0  0  0  0  0
    9.6840   45.9210   49.4170 O   0  0  0  0  0  0  0  0  0  0  0  0
   10.3840   46.4070   48.9440 H   0  0  0  0  0  0  0  0  0  0  0  0
    9.3840   44.0650   46.9440 C   0  0  0  0  0  0  0  0  0  0  0  0
    8.6680   43.3010   47.9500 O   0  0  0  0  0  0  0  0  0  0  0  0
    9.3090   42.6980   48.3630 H   0  0  0  0  0  0  0  0  0  0  0  0
  1 12  1  6  0  0  0
  1  2  1  0  0  0  0
  1 11  1  0  0  0  0
  2  4  1  0  0  0  0
  3  2  1  0  0  0  0
  5 11  1  6  0  0  0
  5  4  1  0  0  0  0
  6  5  1  6  0  0  0
  6 21  1  0  0  0  0
  6  7  1  0  0  0  0
  7 19  1  1  0  0  0
  8  7  1  0  0  0  0
  8 23  1  1  0  0  0
  9 25  1  1  0  0  0
  9  8  1  0  0  0  0
 10  5  1  0  0  0  0
 10  9  1  0  0  0  0
 12 18  1  0  0  0  0
 13 12  2  0  0  0  0
 14 15  2  0  0  0  0
 14 13  1  0  0  0  0
 15 17  1  0  0  0  0
 16 15  1  0  0  0  0
 17 18  2  0  0  0  0
 19 20  1  0  0  0  0
 21 22  1  0  0  0  0
 24 23  1  0  0  0  0
 25 26  1  0  0  0  0
 26 27  1  0  0  0  0
M  END
>  <minimizedAffinity>
-8.58265877

$$$$

 OpenBabel12271915073D

 27 29  0  0  1  0  0  0  0  0999 V2000
    8.1150   48.4700   44.5310 C   0  0  1  0  0  0  0  0  0  0  0  0
    9.5070   48.3380   44.9440 N   0  0  0  0  0  0  0  0  0  0  0  0
   10.1500   49.2020   44.9740 H   0  0  0  0  0  0  0  0  0  0  0  0
    9.4210   47.7910   46.3810 O   0  0  0  0  0  0  0  0  0  0  0  0
    8.1520   47.0240   46.3080 C   0  0  2  0  0  0  0  0  0  0  0  0
    7.7580   46.5800   47.6830 C   0  0  1  0  0  0  0  0  0  0  0  0
    8.8900   45.7700   48.2680 C   0  0  2  0  0  0  0  0  0  0  0  0
    9.1960   44.5710   47.3760 C   0  0  1  0  0  0  0  0  0  0  0  0
    9.2620   44.9020   45.8970 C   0  0  2  0  0  0  0  0  0  0  0  0
    8.2530   45.8420   45.4660 O   0  0  0  0  0  0  0  0  0  0  0  0
    7.2230   47.9420   45.6240 C   0  0  0  0  0  0  0  0  0  0  0  0
    7.7660   49.8570   44.0770 C   0  0  0  0  0  0  0  0  0  0  0  0
    7.5060   50.0900   42.7330 C   0  0  0  0  0  0  0  0  0  0  0  0
    7.1490   51.3670   42.2970 C   0  0  0  0  0  0  0  0  0  0  0  0
    7.0340   52.4140   43.2110 C   0  0  0  0  0  0  0  0  0  0  0  0
    6.6540   53.7670   42.6990 C   0  0  0  0  0  0  0  0  0  0  0  0
    7.3060   52.1830   44.5510 C   0  0  0  0  0  0  0  0  0  0  0  0
    7.6590   50.9150   44.9940 C   0  0  0  0  0  0  0  0  0  0  0  0
    8.5160   45.2530   49.5770 O   0  0  0  0  0  0  0  0  0  0  0  0
    9.1780   44.5650   49.7680 H   0  0  0  0  0  0  0  0  0  0  0  0
    7.4570   47.7350   48.5150 O   0  0  0  0  0  0  0  0  0  0  0  0
    6.7090   47.4420   49.0590 H   0  0  0  0  0  0  0  0  0  0  0  0
   10.4890   44.0290   47.7790 O   0  0  0  0  0  0  0  0  0  0  0  0
   11.1800   44.5300   47.3080 H   0  0  0  0  0  0  0  0  0  0  0  0
    9.0000   43.6590   45.0780 C   0  0  0  0  0  0  0  0  0  0  0  0
    8.6940   42.5520   45.9660 O   0  0  0  0  0  0  0  0  0  0  0  0
    9.2490   41.8010   45.6910 H   0  0  0  0  0  0  0  0  0  0  0  0
  1 12  1  1  0  0  0
  1  2  1  0  0  0  0
  1 11  1  0  0  0  0
  2  3  1  0  0  0  0
  2  4  1  0  0  0  0
  5 11  1  6  0  0  0
  5  4  1  0  0  0  0
  6  5  1  6  0  0  0
  6  7  1  0  0  0  0
  6 21  1  0  0  0  0
  7 19  1  1  0  0  0
  8 23  1  1  0  0  0
  8  7  1  0  0  0  0
  9 25  1  6  0  0  0
  9  8  1  0  0  0  0
 10  9  1  0  0  0  0
 10  5  1  0  0  0  0
 12 18  2  0  0  0  0
 13 12  1  0  0  0  0
 14 13  2  0  0  0  0
 14 15  1  0  0  0  0
 15 17  2  0  0  0  0
 16 15  1  0  0  0  0
 17 18  1  0  0  0  0
 19 20  1  0  0  0  0
 21 22  1  0  0  0  0
 24 23  1  0  0  0  0
 25 26  1  0  0  0  0
 27 26  1  0  0  0  0
M  END
>  <minimizedAffinity>
-8.54567719

$$$$

 OpenBabel12271915073D

 27 29  0  0  1  0  0  0  0  0999 V2000
    8.0930   48.6250   44.0240 C   0  0  1  0  0  0  0  0  0  0  0  0
    6.9040   47.7880   44.1290 N   0  0  0  0  0  0  0  0  0  0  0  0
    5.9470   48.1570   43.7980 H   0  0  0  0  0  0  0  0  0  0  0  0
    7.2350   46.5570   43.2650 O   0  0  0  0  0  0  0  0  0  0  0  0
    8.7110   46.5050   43.4130 C   0  0  2  0  0  0  0  0  0  0  0  0
    9.2730   45.4940   42.4620 C   0  0  1  0  0  0  0  0  0  0  0  0
    8.6160   44.1620   42.7360 C   0  0  2  0  0  0  0  0  0  0  0  0
    8.8590   43.7410   44.1820 C   0  0  1  0  0  0  0  0  0  0  0  0
    8.6410   44.8510   45.1920 C   0  0  2  0  0  0  0  0  0  0  0  0
    9.1310   46.1390   44.7570 O   0  0  0  0  0  0  0  0  0  0  0  0
    9.1360   47.9020   43.2120 C   0  0  0  0  0  0  0  0  0  0  0  0
    7.7930   50.0110   43.5320 C   0  0  0  0  0  0  0  0  0  0  0  0
    8.0820   51.1010   44.3440 C   0  0  0  0  0  0  0  0  0  0  0  0
    7.8400   52.3990   43.8920 C   0  0  0  0  0  0  0  0  0  0  0  0
    7.3210   52.6110   42.6150 C   0  0  0  0  0  0  0  0  0  0  0  0
    7.0730   54.0190   42.1740 C   0  0  0  0  0  0  0  0  0  0  0  0
    7.0210   51.5230   41.8100 C   0  0  0  0  0  0  0  0  0  0  0  0
    7.2620   50.2290   42.2510 C   0  0  0  0  0  0  0  0  0  0  0  0
    9.1920   43.1320   41.8820 O   0  0  0  0  0  0  0  0  0  0  0  0
    8.9000   42.2920   42.2790 H   0  0  0  0  0  0  0  0  0  0  0  0
    9.0440   45.9180   41.0900 O   0  0  0  0  0  0  0  0  0  0  0  0
    9.8490   45.6440   40.6230 H   0  0  0  0  0  0  0  0  0  0  0  0
    7.9390   42.6540   44.4940 O   0  0  0  0  0  0  0  0  0  0  0  0
    7.0940   43.0520   44.7740 H   0  0  0  0  0  0  0  0  0  0  0  0
    9.4150   44.5570   46.4570 C   0  0  0  0  0  0  0  0  0  0  0  0
    9.0230   43.2560   46.9700 O   0  0  0  0  0  0  0  0  0  0  0  0
    8.8270   43.3670   47.9160 H   0  0  0  0  0  0  0  0  0  0  0  0
  1 12  1  6  0  0  0
  1  2  1  0  0  0  0
  3  2  1  0  0  0  0
  4  5  1  0  0  0  0
  4  2  1  0  0  0  0
  5 11  1  6  0  0  0
  5 10  1  0  0  0  0
  6  7  1  0  0  0  0
  6  5  1  1  0  0  0
  7 19  1  6  0  0  0
  7  8  1  0  0  0  0
  8 23  1  1  0  0  0
  8  9  1  0  0  0  0
  9 25  1  1  0  0  0
 10  9  1  0  0  0  0
 11  1  1  0  0  0  0
 12 13  2  0  0  0  0
 14 13  1  0  0  0  0
 15 14  2  0  0  0  0
 16 15  1  0  0  0  0
 17 18  2  0  0  0  0
 17 15  1  0  0  0  0
 18 12  1  0  0  0  0
 19 20  1  0  0  0  0
 21  6  1  0  0  0  0
 22 21  1  0  0  0  0
 23 24  1  0  0  0  0
 25 26  1  0  0  0  0
 26 27  1  0  0  0  0
M  END
>  <minimizedAffinity>
-8.48409367

$$$$

 OpenBabel12271915073D

 27 29  0  0  1  0  0  0  0  0999 V2000
    7.7360   47.8820   42.8480 C   0  0  1  0  0  0  0  0  0  0  0  0
    6.6590   46.9620   43.1940 N   0  0  0  0  0  0  0  0  0  0  0  0
    5.6990   47.0430   42.7130 H   0  0  0  0  0  0  0  0  0  0  0  0
    7.2250   45.5740   42.8410 O   0  0  0  0  0  0  0  0  0  0  0  0
    8.6750   45.8020   43.0620 C   0  0  2  0  0  0  0  0  0  0  0  0
    9.4480   44.6230   42.5590 C   0  0  1  0  0  0  0  0  0  0  0  0
    8.9440   43.3850   43.2620 C   0  0  2  0  0  0  0  0  0  0  0  0
    9.1020   43.5340   44.7710 C   0  0  1  0  0  0  0  0  0  0  0  0
    8.6490   44.8790   45.3090 C   0  0  2  0  0  0  0  0  0  0  0  0
    9.0100   45.9940   44.4640 O   0  0  0  0  0  0  0  0  0  0  0  0
    8.9350   47.0910   42.3930 C   0  0  0  0  0  0  0  0  0  0  0  0
    7.3100   48.9490   41.8820 C   0  0  0  0  0  0  0  0  0  0  0  0
    6.8400   48.5840   40.6270 C   0  0  0  0  0  0  0  0  0  0  0  0
    6.4100   49.5590   39.7260 C   0  0  0  0  0  0  0  0  0  0  0  0
    6.4320   50.9060   40.0880 C   0  0  0  0  0  0  0  0  0  0  0  0
    5.9670   51.9180   39.0890 C   0  0  0  0  0  0  0  0  0  0  0  0
    6.9130   51.2700   41.3360 C   0  0  0  0  0  0  0  0  0  0  0  0
    7.3400   50.3060   42.2390 C   0  0  0  0  0  0  0  0  0  0  0  0
    9.7250   42.2240   42.8570 O   0  0  0  0  0  0  0  0  0  0  0  0
    9.5060   41.5400   43.5150 H   0  0  0  0  0  0  0  0  0  0  0  0
    9.2970   44.5040   41.1170 O   0  0  0  0  0  0  0  0  0  0  0  0
   10.1710   44.2120   40.8140 H   0  0  0  0  0  0  0  0  0  0  0  0
    8.3020   42.4960   45.4120 O   0  0  0  0  0  0  0  0  0  0  0  0
    7.3910   42.8320   45.4940 H   0  0  0  0  0  0  0  0  0  0  0  0
    9.3310   45.1630   46.6270 C   0  0  0  0  0  0  0  0  0  0  0  0
    8.6050   44.5060   47.6990 O   0  0  0  0  0  0  0  0  0  0  0  0
    8.4620   45.1660   48.3980 H   0  0  0  0  0  0  0  0  0  0  0  0
  1 12  1  6  0  0  0
  1  2  1  0  0  0  0
  3  2  1  0  0  0  0
  4  5  1  0  0  0  0
  4  2  1  0  0  0  0
  5 11  1  6  0  0  0
  5 10  1  0  0  0  0
  6  5  1  1  0  0  0
  6  7  1  0  0  0  0
  7 19  1  6  0  0  0
  7  8  1  0  0  0  0
  8  9  1  0  0  0  0
  8 23  1  1  0  0  0
  9 25  1  1  0  0  0
 10  9  1  0  0  0  0
 11  1  1  0  0  0  0
 12 18  1  0  0  0  0
 13 12  2  0  0  0  0
 14 15  2  0  0  0  0
 14 13  1  0  0  0  0
 15 17  1  0  0  0  0
 16 15  1  0  0  0  0
 17 18  2  0  0  0  0
 19 20  1  0  0  0  0
 21  6  1  0  0  0  0
 22 21  1  0  0  0  0
 23 24  1  0  0  0  0
 25 26  1  0  0  0  0
 26 27  1  0  0  0  0
M  END
>  <minimizedAffinity>
-8.46135902

$$$$

 OpenBabel12271915073D

 27 29  0  0  1  0  0  0  0  0999 V2000
    7.7700   47.7180   42.6950 C   0  0  1  0  0  0  0  0  0  0  0  0
    9.1600   47.8570   43.1150 N   0  0  0  0  0  0  0  0  0  0  0  0
    9.7430   48.7040   42.7950 H   0  0  0  0  0  0  0  0  0  0  0  0
    9.0810   47.9200   44.6510 O   0  0  0  0  0  0  0  0  0  0  0  0
    7.8680   47.1010   44.9000 C   0  0  2  0  0  0  0  0  0  0  0  0
    7.4770   47.2120   46.3410 C   0  0  1  0  0  0  0  0  0  0  0  0
    8.6490   46.7810   47.1890 C   0  0  2  0  0  0  0  0  0  0  0  0
    9.0530   45.3510   46.8440 C   0  0  1  0  0  0  0  0  0  0  0  0
    9.1260   45.0720   45.3550 C   0  0  2  0  0  0  0  0  0  0  0  0
    8.0640   45.6930   44.5950 O   0  0  0  0  0  0  0  0  0  0  0  0
    6.8940   47.6070   43.9150 C   0  0  0  0  0  0  0  0  0  0  0  0
    7.3380   48.7840   41.7310 C   0  0  0  0  0  0  0  0  0  0  0  0
    6.9650   48.4280   40.4410 C   0  0  0  0  0  0  0  0  0  0  0  0
    6.5310   49.4010   39.5400 C   0  0  0  0  0  0  0  0  0  0  0  0
    6.4520   50.7370   39.9350 C   0  0  0  0  0  0  0  0  0  0  0  0
    5.9860   51.7470   38.9360 C   0  0  0  0  0  0  0  0  0  0  0  0
    6.8370   51.0930   41.2190 C   0  0  0  0  0  0  0  0  0  0  0  0
    7.2670   50.1310   42.1220 C   0  0  0  0  0  0  0  0  0  0  0  0
    8.2840   46.8000   48.5990 O   0  0  0  0  0  0  0  0  0  0  0  0
    8.9870   46.2920   49.0420 H   0  0  0  0  0  0  0  0  0  0  0  0
    7.0840   48.5780   46.6490 O   0  0  0  0  0  0  0  0  0  0  0  0
    6.3460   48.4740   47.2700 H   0  0  0  0  0  0  0  0  0  0  0  0
   10.3710   45.1040   47.4180 O   0  0  0  0  0  0  0  0  0  0  0  0
   11.0350   45.4230   46.7810 H   0  0  0  0  0  0  0  0  0  0  0  0
    8.9630   43.5920   45.0980 C   0  0  0  0  0  0  0  0  0  0  0  0
    8.8910   42.8870   46.3650 O   0  0  0  0  0  0  0  0  0  0  0  0
    9.5150   42.1430   46.3170 H   0  0  0  0  0  0  0  0  0  0  0  0
  1 12  1  1  0  0  0
  1  2  1  0  0  0  0
  1 11  1  0  0  0  0
  2  4  1  0  0  0  0
  3  2  1  0  0  0  0
  4  5  1  0  0  0  0
  5 11  1  6  0  0  0
  6  5  1  6  0  0  0
  6 21  1  0  0  0  0
  6  7  1  0  0  0  0
  7 19  1  1  0  0  0
  8  7  1  0  0  0  0
  8 23  1  6  0  0  0
  9 25  1  1  0  0  0
  9  8  1  0  0  0  0
 10  5  1  0  0  0  0
 10  9  1  0  0  0  0
 12 18  1  0  0  0  0
 13 12  2  0  0  0  0
 14 15  2  0  0  0  0
 14 13  1  0  0  0  0
 15 17  1  0  0  0  0
 16 15  1  0  0  0  0
 17 18  2  0  0  0  0
 19 20  1  0  0  0  0
 21 22  1  0  0  0  0
 24 23  1  0  0  0  0
 25 26  1  0  0  0  0
 27 26  1  0  0  0  0
M  END
>  <minimizedAffinity>
-8.32030392

$$$$
