
 OpenBabel12271914563D

 42 46  0  0  1  0  0  0  0  0999 V2000
    9.2170   46.7410   46.3270 C   0  0  1  0  0  0  0  0  0  0  0  0
    9.4340   46.4450   44.7570 C   0  0  1  0  0  0  0  0  0  0  0  0
    9.2640   44.9850   44.1510 C   0  0  0  0  0  0  0  0  0  0  0  0
    8.9260   43.9720   45.0370 C   0  0  0  0  0  0  0  0  0  0  0  0
    8.6570   42.7460   44.4820 C   0  0  0  0  0  0  0  0  0  0  0  0
    8.2740   41.5960   45.2490 O   0  0  0  0  0  0  0  0  0  0  0  0
    7.9490   40.7970   44.0730 C   0  0  0  0  0  0  0  0  0  0  0  0
    8.3760   41.1950   42.7730 O   0  0  0  0  0  0  0  0  0  0  0  0
    8.7140   42.4740   43.1190 C   0  0  0  0  0  0  0  0  0  0  0  0
    9.0540   43.4580   42.1880 C   0  0  0  0  0  0  0  0  0  0  0  0
    9.3250   44.7250   42.7280 C   0  0  0  0  0  0  0  0  0  0  0  0
    9.5750   45.7990   41.6750 C   0  0  0  0  0  0  0  0  0  0  0  0
    8.9390   47.1810   41.8750 C   0  0  0  0  0  0  0  0  0  0  0  0
    7.7840   47.1560   42.8260 N   0  0  2  0  0  0  0  0  0  0  0  0
    7.2920   46.2530   42.7910 H   0  0  0  0  0  0  0  0  0  0  0  0
    6.8220   48.2840   42.5660 C   0  0  0  0  0  0  0  0  0  0  0  0
    7.5540   49.4680   43.2330 C   0  0  0  0  0  0  0  0  0  0  0  0
    8.4730   48.8910   44.3040 C   0  0  0  0  0  0  0  0  0  0  0  0
    8.1880   47.3710   44.2520 C   0  0  2  0  0  0  0  0  0  0  0  0
    7.1290   46.9780   45.3090 C   0  0  0  0  0  0  0  0  0  0  0  0
    7.6850   46.5340   46.4700 C   0  0  2  0  0  0  0  0  0  0  0  0
    6.9580   46.4830   47.6310 O   0  0  0  0  0  0  0  0  0  0  0  0
    6.0520   47.5410   47.7460 C   0  0  0  0  0  0  0  0  0  0  0  0
   10.0660   45.9450   47.2180 O   0  0  0  0  0  0  0  0  0  0  0  0
   10.5100   46.7060   48.2990 C   0  0  0  0  0  0  0  0  0  0  0  0
   11.2670   47.6500   48.1080 O   0  0  0  0  0  0  0  0  0  0  0  0
    9.9100   46.2970   49.6410 C   0  0  2  0  0  0  0  0  0  0  0  0
   10.9550   46.0860   50.5740 O   0  0  0  0  0  0  0  0  0  0  0  0
   11.6280   45.5650   50.1720 H   0  0  0  0  0  0  0  0  0  0  0  0
    9.0730   45.0200   49.6810 C   0  0  0  0  0  0  0  0  0  0  0  0
    9.8960   43.9810   50.4040 C   0  0  0  0  0  0  0  0  0  0  0  0
    9.7860   43.7300   51.5740 O   0  0  0  0  0  0  0  0  0  0  0  0
   10.6430   43.2760   49.5090 O   0  0  0  0  0  0  0  0  0  0  0  0
    9.8930   42.6540   48.4820 C   0  0  0  0  0  0  0  0  0  0  0  0
    9.0530   47.5090   50.1860 C   0  0  0  0  0  0  0  0  0  0  0  0
    7.8600   47.0260   50.9910 C   0  0  0  0  0  0  0  0  0  0  0  0
    7.0400   48.0840   51.6800 C   0  0  0  0  0  0  0  0  0  0  0  0
    6.0100   47.6040   52.6900 C   0  0  0  0  0  0  0  0  0  0  0  0
    5.0960   48.7270   53.1580 C   0  0  0  0  0  0  0  0  0  0  0  0
    6.7620   47.0910   53.9580 C   0  0  0  0  0  0  0  0  0  0  0  0
    5.2430   46.5580   52.1570 O   0  0  0  0  0  0  0  0  0  0  0  0
    5.7510   46.0030   51.6040 H   0  0  0  0  0  0  0  0  0  0  0  0
  1 21  1  0  0  0  0
  1 24  1  1  0  0  0
  2 19  1  6  0  0  0
  2  1  1  0  0  0  0
  3  2  1  0  0  0  0
  3  4  2  0  0  0  0
  5  4  1  0  0  0  0
  5  6  1  0  0  0  0
  7  6  1  0  0  0  0
  8  9  1  0  0  0  0
  8  7  1  0  0  0  0
  9  5  2  0  0  0  0
 10 11  2  0  0  0  0
 10  9  1  0  0  0  0
 11  3  1  0  0  0  0
 12 13  1  0  0  0  0
 12 11  1  0  0  0  0
 13 14  1  0  0  0  0
 14 19  1  1  0  0  0
 15 14  1  0  0  0  0
 16 14  1  0  0  0  0
 16 17  1  0  0  0  0
 17 18  1  0  0  0  0
 19 18  1  1  0  0  0
 19 20  1  0  0  0  0
 20 21  1  0  0  0  0
 21 22  1  1  0  0  0
 22 23  1  0  0  0  0
 24 25  1  0  0  0  0
 25 27  1  0  0  0  0
 26 25  2  0  0  0  0
 27 30  1  6  0  0  0
 27 35  1  0  0  0  0
 27 28  1  0  0  0  0
 29 28  1  0  0  0  0
 30 31  1  0  0  0  0
 31 32  2  0  0  0  0
 33 31  1  0  0  0  0
 34 33  1  0  0  0  0
 35 36  1  0  0  0  0
 36 37  2  0  0  0  0
 37 38  1  0  0  0  0
 38 39  1  0  0  0  0
 38 40  1  0  0  0  0
 41 38  1  0  0  0  0
 42 41  1  0  0  0  0
M  END
>  <minimizedAffinity>
-8.37708569

$$$$

 OpenBabel12271914563D

 42 46  0  0  1  0  0  0  0  0999 V2000
    8.8650   46.8240   44.6980 C   0  0  1  0  0  0  0  0  0  0  0  0
    8.9110   46.4560   43.1290 C   0  0  1  0  0  0  0  0  0  0  0  0
    8.7130   44.9650   42.6150 C   0  0  0  0  0  0  0  0  0  0  0  0
    8.5050   43.9890   43.5800 C   0  0  0  0  0  0  0  0  0  0  0  0
    8.2080   42.7310   43.1160 C   0  0  0  0  0  0  0  0  0  0  0  0
    7.9470   41.6130   43.9750 O   0  0  0  0  0  0  0  0  0  0  0  0
    7.5120   40.7500   42.8830 C   0  0  0  0  0  0  0  0  0  0  0  0
    7.7790   41.0930   41.5250 O   0  0  0  0  0  0  0  0  0  0  0  0
    8.1180   42.3940   41.7700 C   0  0  0  0  0  0  0  0  0  0  0  0
    8.3240   43.3380   40.7620 C   0  0  0  0  0  0  0  0  0  0  0  0
    8.6200   44.6360   41.2070 C   0  0  0  0  0  0  0  0  0  0  0  0
    8.7180   45.6620   40.0840 C   0  0  0  0  0  0  0  0  0  0  0  0
    8.0720   47.0380   40.2910 C   0  0  0  0  0  0  0  0  0  0  0  0
    7.0340   47.0350   41.3680 N   0  0  2  0  0  0  0  0  0  0  0  0
    6.5660   46.1200   41.4320 H   0  0  0  0  0  0  0  0  0  0  0  0
    6.0180   48.1270   41.1690 C   0  0  0  0  0  0  0  0  0  0  0  0
    6.7880   49.3580   41.6920 C   0  0  0  0  0  0  0  0  0  0  0  0
    7.8380   48.8550   42.6760 C   0  0  0  0  0  0  0  0  0  0  0  0
    7.5900   47.3290   42.7280 C   0  0  2  0  0  0  0  0  0  0  0  0
    6.6690   46.9650   43.9160 C   0  0  0  0  0  0  0  0  0  0  0  0
    7.3650   46.5910   45.0250 C   0  0  2  0  0  0  0  0  0  0  0  0
    6.7760   46.5820   46.2630 O   0  0  0  0  0  0  0  0  0  0  0  0
    6.4750   47.8660   46.7260 C   0  0  0  0  0  0  0  0  0  0  0  0
    9.8310   46.0920   45.5210 O   0  0  0  0  0  0  0  0  0  0  0  0
   10.2710   46.8720   46.5910 C   0  0  0  0  0  0  0  0  0  0  0  0
   10.7250   47.9900   46.3810 O   0  0  0  0  0  0  0  0  0  0  0  0
   10.0540   46.2370   47.9610 C   0  0  2  0  0  0  0  0  0  0  0  0
    8.6660   46.0480   48.1720 O   0  0  0  0  0  0  0  0  0  0  0  0
    8.2060   46.8330   47.9300 H   0  0  0  0  0  0  0  0  0  0  0  0
   10.5450   47.0090   49.1830 C   0  0  0  0  0  0  0  0  0  0  0  0
    9.4210   46.9910   50.1920 C   0  0  0  0  0  0  0  0  0  0  0  0
    8.5300   47.7960   50.2230 O   0  0  0  0  0  0  0  0  0  0  0  0
    9.4840   45.8500   50.9350 O   0  0  0  0  0  0  0  0  0  0  0  0
   10.7210   45.6490   51.5930 C   0  0  0  0  0  0  0  0  0  0  0  0
   10.7110   44.7990   47.9440 C   0  0  0  0  0  0  0  0  0  0  0  0
    9.6770   43.7140   48.1870 C   0  0  0  0  0  0  0  0  0  0  0  0
    9.3800   42.7960   47.0320 C   0  0  0  0  0  0  0  0  0  0  0  0
    8.8720   41.4050   47.3740 C   0  0  0  0  0  0  0  0  0  0  0  0
    8.7890   41.1760   48.8770 C   0  0  0  0  0  0  0  0  0  0  0  0
    9.8900   40.3560   46.8250 C   0  0  0  0  0  0  0  0  0  0  0  0
    7.6180   41.1770   46.7880 O   0  0  0  0  0  0  0  0  0  0  0  0
    7.5490   41.5830   45.9500 H   0  0  0  0  0  0  0  0  0  0  0  0
  1 21  1  0  0  0  0
  1 24  1  1  0  0  0
  2 19  1  6  0  0  0
  2  1  1  0  0  0  0
  3  2  1  0  0  0  0
  3  4  2  0  0  0  0
  5  4  1  0  0  0  0
  5  6  1  0  0  0  0
  7  6  1  0  0  0  0
  8  9  1  0  0  0  0
  8  7  1  0  0  0  0
  9  5  2  0  0  0  0
 10 11  2  0  0  0  0
 10  9  1  0  0  0  0
 11  3  1  0  0  0  0
 12 13  1  0  0  0  0
 12 11  1  0  0  0  0
 13 14  1  0  0  0  0
 14 15  1  0  0  0  0
 14 19  1  1  0  0  0
 16 14  1  0  0  0  0
 16 17  1  0  0  0  0
 17 18  1  0  0  0  0
 19 18  1  1  0  0  0
 19 20  1  0  0  0  0
 20 21  1  0  0  0  0
 21 22  1  1  0  0  0
 22 23  1  0  0  0  0
 24 25  1  0  0  0  0
 25 27  1  0  0  0  0
 26 25  2  0  0  0  0
 27 35  1  1  0  0  0
 27 28  1  0  0  0  0
 27 30  1  0  0  0  0
 29 28  1  0  0  0  0
 30 31  1  0  0  0  0
 31 32  2  0  0  0  0
 31 33  1  0  0  0  0
 33 34  1  0  0  0  0
 35 36  1  0  0  0  0
 37 38  1  0  0  0  0
 37 36  1  0  0  0  0
 38 39  1  0  0  0  0
 40 38  1  0  0  0  0
 41 38  1  0  0  0  0
 42 41  1  0  0  0  0
M  END
>  <minimizedAffinity>
-8.11110401

$$$$

 OpenBabel12271914563D

 42 46  0  0  1  0  0  0  0  0999 V2000
    8.5480   46.9120   48.6780 C   0  0  1  0  0  0  0  0  0  0  0  0
    8.2120   46.0630   50.0070 C   0  0  1  0  0  0  0  0  0  0  0  0
    8.7460   44.5790   50.2060 C   0  0  0  0  0  0  0  0  0  0  0  0
    9.5110   44.0420   49.1810 C   0  0  0  0  0  0  0  0  0  0  0  0
   10.0720   42.8120   49.4210 C   0  0  0  0  0  0  0  0  0  0  0  0
   10.9040   42.1240   48.4790 O   0  0  0  0  0  0  0  0  0  0  0  0
   11.2940   41.0880   49.4290 C   0  0  0  0  0  0  0  0  0  0  0  0
   10.5800   40.9050   50.6490 O   0  0  0  0  0  0  0  0  0  0  0  0
    9.9080   42.0950   50.6020 C   0  0  0  0  0  0  0  0  0  0  0  0
    9.1440   42.5890   51.6610 C   0  0  0  0  0  0  0  0  0  0  0  0
    8.5660   43.8500   51.4460 C   0  0  0  0  0  0  0  0  0  0  0  0
    7.8420   44.4090   52.6650 C   0  0  0  0  0  0  0  0  0  0  0  0
    8.0290   45.8910   53.0120 C   0  0  0  0  0  0  0  0  0  0  0  0
    9.2560   46.4820   52.3920 N   0  0  2  0  0  0  0  0  0  0  0  0
    9.9980   45.7760   52.2910 H   0  0  0  0  0  0  0  0  0  0  0  0
    9.7640   47.6630   53.1740 C   0  0  0  0  0  0  0  0  0  0  0  0
    8.7990   48.7740   52.7080 C   0  0  0  0  0  0  0  0  0  0  0  0
    8.2740   48.3750   51.3340 C   0  0  0  0  0  0  0  0  0  0  0  0
    9.0150   47.0510   51.0280 C   0  0  2  0  0  0  0  0  0  0  0  0
   10.2840   47.3180   50.1850 C   0  0  0  0  0  0  0  0  0  0  0  0
   10.0700   47.1620   48.8490 C   0  0  2  0  0  0  0  0  0  0  0  0
   10.9340   47.6900   47.9250 O   0  0  0  0  0  0  0  0  0  0  0  0
   11.2820   46.7750   46.9280 C   0  0  0  0  0  0  0  0  0  0  0  0
    8.1310   46.2720   47.4270 O   0  0  0  0  0  0  0  0  0  0  0  0
    7.0550   46.9480   46.8520 C   0  0  0  0  0  0  0  0  0  0  0  0
    6.0480   47.1630   47.5150 O   0  0  0  0  0  0  0  0  0  0  0  0
    7.3060   47.4260   45.4250 C   0  0  2  0  0  0  0  0  0  0  0  0
    6.1800   47.1150   44.6240 O   0  0  0  0  0  0  0  0  0  0  0  0
    5.9160   46.2270   44.7920 H   0  0  0  0  0  0  0  0  0  0  0  0
    8.5030   46.8340   44.6820 C   0  0  0  0  0  0  0  0  0  0  0  0
    7.9530   45.8120   43.7140 C   0  0  0  0  0  0  0  0  0  0  0  0
    7.4210   44.7880   44.0460 O   0  0  0  0  0  0  0  0  0  0  0  0
    8.0060   46.3030   42.4440 O   0  0  0  0  0  0  0  0  0  0  0  0
    9.0800   45.8050   41.6690 C   0  0  0  0  0  0  0  0  0  0  0  0
    7.4260   49.0020   45.4490 C   0  0  0  0  0  0  0  0  0  0  0  0
    8.0120   49.5330   44.1530 C   0  0  0  0  0  0  0  0  0  0  0  0
    7.2000   50.5670   43.4210 C   0  0  0  0  0  0  0  0  0  0  0  0
    7.3720   52.0120   43.8600 C   0  0  0  0  0  0  0  0  0  0  0  0
    6.1630   52.5280   44.6280 C   0  0  0  0  0  0  0  0  0  0  0  0
    7.4970   52.9060   42.5860 C   0  0  0  0  0  0  0  0  0  0  0  0
    8.5280   52.1590   44.6390 O   0  0  0  0  0  0  0  0  0  0  0  0
    9.2170   51.6030   44.3440 H   0  0  0  0  0  0  0  0  0  0  0  0
  1 24  1  6  0  0  0
  1 21  1  0  0  0  0
  1  2  1  0  0  0  0
  2  3  1  0  0  0  0
  2 19  1  1  0  0  0
  3 11  2  0  0  0  0
  4  5  2  0  0  0  0
  4  3  1  0  0  0  0
  5  9  1  0  0  0  0
  6  5  1  0  0  0  0
  6  7  1  0  0  0  0
  7  8  1  0  0  0  0
  9  8  1  0  0  0  0
  9 10  2  0  0  0  0
 11 10  1  0  0  0  0
 11 12  1  0  0  0  0
 12 13  1  0  0  0  0
 14 19  1  6  0  0  0
 14 13  1  0  0  0  0
 14 16  1  0  0  0  0
 15 14  1  0  0  0  0
 17 16  1  0  0  0  0
 18 17  1  0  0  0  0
 19 20  1  6  0  0  0
 19 18  1  0  0  0  0
 21 22  1  6  0  0  0
 21 20  1  0  0  0  0
 23 22  1  0  0  0  0
 25 24  1  0  0  0  0
 25 26  2  0  0  0  0
 27 30  1  6  0  0  0
 27 35  1  0  0  0  0
 27 25  1  0  0  0  0
 28 29  1  0  0  0  0
 28 27  1  0  0  0  0
 31 32  2  0  0  0  0
 31 30  1  0  0  0  0
 33 31  1  0  0  0  0
 34 33  1  0  0  0  0
 36 35  1  0  0  0  0
 37 38  1  0  0  0  0
 37 36  1  0  0  0  0
 38 39  1  0  0  0  0
 38 41  1  0  0  0  0
 40 38  1  0  0  0  0
 42 41  1  0  0  0  0
M  END
>  <minimizedAffinity>
-7.97785902

$$$$

 OpenBabel12271914563D

 42 46  0  0  1  0  0  0  0  0999 V2000
    9.1680   46.5270   45.9200 C   0  0  1  0  0  0  0  0  0  0  0  0
    9.3330   46.1980   44.3490 C   0  0  1  0  0  0  0  0  0  0  0  0
    9.0170   44.7550   43.7620 C   0  0  0  0  0  0  0  0  0  0  0  0
    8.6000   43.7860   44.6630 C   0  0  0  0  0  0  0  0  0  0  0  0
    8.2090   42.5850   44.1250 C   0  0  0  0  0  0  0  0  0  0  0  0
    7.7330   41.4840   44.9100 O   0  0  0  0  0  0  0  0  0  0  0  0
    7.3160   40.7080   43.7480 C   0  0  0  0  0  0  0  0  0  0  0  0
    7.7580   41.0520   42.4370 O   0  0  0  0  0  0  0  0  0  0  0  0
    8.2190   42.2970   42.7640 C   0  0  0  0  0  0  0  0  0  0  0  0
    8.6350   43.2350   41.8180 C   0  0  0  0  0  0  0  0  0  0  0  0
    9.0320   44.4760   42.3400 C   0  0  0  0  0  0  0  0  0  0  0  0
    9.3640   45.5130   41.2730 C   0  0  0  0  0  0  0  0  0  0  0  0
    8.8640   46.9500   41.4670 C   0  0  0  0  0  0  0  0  0  0  0  0
    7.7270   47.0420   42.4350 N   0  0  2  0  0  0  0  0  0  0  0  0
    7.1520   46.1890   42.4170 H   0  0  0  0  0  0  0  0  0  0  0  0
    6.8710   48.2530   42.1770 C   0  0  0  0  0  0  0  0  0  0  0  0
    7.7200   49.3690   42.8210 C   0  0  0  0  0  0  0  0  0  0  0  0
    8.5970   48.7190   43.8850 C   0  0  0  0  0  0  0  0  0  0  0  0
    8.1710   47.2320   43.8530 C   0  0  2  0  0  0  0  0  0  0  0  0
    7.0960   46.9490   44.9290 C   0  0  0  0  0  0  0  0  0  0  0  0
    7.6270   46.4660   46.0870 C   0  0  2  0  0  0  0  0  0  0  0  0
    6.9160   46.4950   47.2590 O   0  0  0  0  0  0  0  0  0  0  0  0
    6.0890   47.6170   47.3600 C   0  0  0  0  0  0  0  0  0  0  0  0
    9.9540   45.6640   46.8060 O   0  0  0  0  0  0  0  0  0  0  0  0
   10.6250   46.4150   47.7710 C   0  0  0  0  0  0  0  0  0  0  0  0
   11.6350   47.0350   47.4640 O   0  0  0  0  0  0  0  0  0  0  0  0
    9.9430   46.4320   49.1360 C   0  0  2  0  0  0  0  0  0  0  0  0
    9.2170   47.6400   49.2790 O   0  0  0  0  0  0  0  0  0  0  0  0
    9.7570   48.3600   49.0050 H   0  0  0  0  0  0  0  0  0  0  0  0
   10.8370   46.3520   50.3720 C   0  0  0  0  0  0  0  0  0  0  0  0
   10.9950   47.7630   50.8890 C   0  0  0  0  0  0  0  0  0  0  0  0
   11.7610   48.5660   50.4290 O   0  0  0  0  0  0  0  0  0  0  0  0
   10.0390   48.0240   51.8230 O   0  0  0  0  0  0  0  0  0  0  0  0
   10.4640   48.8720   52.8740 C   0  0  0  0  0  0  0  0  0  0  0  0
    8.8850   45.2580   49.1720 C   0  0  0  0  0  0  0  0  0  0  0  0
    8.1840   45.1850   50.5160 C   0  0  0  0  0  0  0  0  0  0  0  0
    7.1970   46.2790   50.8210 C   0  0  0  0  0  0  0  0  0  0  0  0
    6.4760   46.2000   52.1570 C   0  0  0  0  0  0  0  0  0  0  0  0
    6.7130   47.4350   53.0140 C   0  0  0  0  0  0  0  0  0  0  0  0
    7.0510   44.9910   52.9590 C   0  0  0  0  0  0  0  0  0  0  0  0
    5.0990   46.0110   51.9660 O   0  0  0  0  0  0  0  0  0  0  0  0
    4.9230   45.4670   51.2290 H   0  0  0  0  0  0  0  0  0  0  0  0
  1 21  1  0  0  0  0
  1 24  1  1  0  0  0
  2 19  1  6  0  0  0
  2  1  1  0  0  0  0
  3  2  1  0  0  0  0
  3  4  2  0  0  0  0
  5  4  1  0  0  0  0
  5  6  1  0  0  0  0
  7  6  1  0  0  0  0
  8  9  1  0  0  0  0
  8  7  1  0  0  0  0
  9  5  2  0  0  0  0
 10 11  2  0  0  0  0
 10  9  1  0  0  0  0
 11  3  1  0  0  0  0
 12 13  1  0  0  0  0
 12 11  1  0  0  0  0
 13 14  1  0  0  0  0
 14 19  1  1  0  0  0
 15 14  1  0  0  0  0
 16 14  1  0  0  0  0
 16 17  1  0  0  0  0
 17 18  1  0  0  0  0
 19 18  1  1  0  0  0
 19 20  1  0  0  0  0
 20 21  1  0  0  0  0
 21 22  1  1  0  0  0
 22 23  1  0  0  0  0
 24 25  1  0  0  0  0
 25 27  1  0  0  0  0
 26 25  2  0  0  0  0
 27 35  1  1  0  0  0
 27 28  1  0  0  0  0
 27 30  1  0  0  0  0
 29 28  1  0  0  0  0
 30 31  1  0  0  0  0
 31 33  1  0  0  0  0
 32 31  2  0  0  0  0
 33 34  1  0  0  0  0
 35 36  1  0  0  0  0
 36 37  2  0  0  0  0
 37 38  1  0  0  0  0
 38 40  1  0  0  0  0
 38 39  1  0  0  0  0
 41 38  1  0  0  0  0
 42 41  1  0  0  0  0
M  END
>  <minimizedAffinity>
-7.86562109

$$$$

 OpenBabel12271914563D

 42 46  0  0  1  0  0  0  0  0999 V2000
    9.0300   47.3190   49.6660 C   0  0  1  0  0  0  0  0  0  0  0  0
    8.3530   46.4880   50.8710 C   0  0  1  0  0  0  0  0  0  0  0  0
    8.8140   45.0090   51.2270 C   0  0  0  0  0  0  0  0  0  0  0  0
    9.8220   44.4590   50.4490 C   0  0  0  0  0  0  0  0  0  0  0  0
   10.2980   43.2350   50.8470 C   0  0  0  0  0  0  0  0  0  0  0  0
   11.3490   42.5350   50.1690 O   0  0  0  0  0  0  0  0  0  0  0  0
   11.4720   41.5140   51.2030 C   0  0  0  0  0  0  0  0  0  0  0  0
   10.4590   41.3460   52.1940 O   0  0  0  0  0  0  0  0  0  0  0  0
    9.8260   42.5340   51.9530 C   0  0  0  0  0  0  0  0  0  0  0  0
    8.8090   43.0410   52.7640 C   0  0  0  0  0  0  0  0  0  0  0  0
    8.3110   44.2970   52.3850 C   0  0  0  0  0  0  0  0  0  0  0  0
    7.2890   44.8720   53.3590 C   0  0  0  0  0  0  0  0  0  0  0  0
    7.3790   46.3590   53.7220 C   0  0  0  0  0  0  0  0  0  0  0  0
    8.7280   46.9440   53.4420 N   0  0  2  0  0  0  0  0  0  0  0  0
    9.4700   46.2390   53.5510 H   0  0  0  0  0  0  0  0  0  0  0  0
    9.0120   48.1380   54.3130 C   0  0  0  0  0  0  0  0  0  0  0  0
    8.2070   49.2390   53.5920 C   0  0  0  0  0  0  0  0  0  0  0  0
    8.0640   48.8190   52.1330 C   0  0  0  0  0  0  0  0  0  0  0  0
    8.8580   47.4930   52.0540 C   0  0  2  0  0  0  0  0  0  0  0  0
   10.3060   47.7510   51.5740 C   0  0  0  0  0  0  0  0  0  0  0  0
   10.4530   47.5760   50.2320 C   0  0  2  0  0  0  0  0  0  0  0  0
   11.5320   48.0930   49.5630 O   0  0  0  0  0  0  0  0  0  0  0  0
   12.2580   49.0040   50.3340 C   0  0  0  0  0  0  0  0  0  0  0  0
    8.9590   46.6600   48.3600 O   0  0  0  0  0  0  0  0  0  0  0  0
    7.8400   47.0850   47.6440 C   0  0  0  0  0  0  0  0  0  0  0  0
    6.8250   47.4160   48.2440 O   0  0  0  0  0  0  0  0  0  0  0  0
    8.0530   47.1610   46.1350 C   0  0  2  0  0  0  0  0  0  0  0  0
    7.1460   46.2840   45.4910 O   0  0  0  0  0  0  0  0  0  0  0  0
    7.1510   45.4530   45.9340 H   0  0  0  0  0  0  0  0  0  0  0  0
    9.4310   46.7800   45.5960 C   0  0  0  0  0  0  0  0  0  0  0  0
    9.3420   45.3390   45.1510 C   0  0  0  0  0  0  0  0  0  0  0  0
    9.2190   44.4090   45.9000 O   0  0  0  0  0  0  0  0  0  0  0  0
    9.2570   45.2790   43.7920 O   0  0  0  0  0  0  0  0  0  0  0  0
    9.0580   43.9760   43.2760 C   0  0  0  0  0  0  0  0  0  0  0  0
    7.6860   48.6240   45.6600 C   0  0  0  0  0  0  0  0  0  0  0  0
    8.3640   48.9670   44.3470 C   0  0  0  0  0  0  0  0  0  0  0  0
    7.4650   49.3690   43.2090 C   0  0  0  0  0  0  0  0  0  0  0  0
    7.0250   48.2670   42.2590 C   0  0  0  0  0  0  0  0  0  0  0  0
    8.2060   47.5660   41.6040 C   0  0  0  0  0  0  0  0  0  0  0  0
    6.1980   48.9110   41.1020 C   0  0  0  0  0  0  0  0  0  0  0  0
    6.2250   47.3280   42.9260 O   0  0  0  0  0  0  0  0  0  0  0  0
    5.6810   47.7310   43.5690 H   0  0  0  0  0  0  0  0  0  0  0  0
  1 24  1  6  0  0  0
  1 21  1  0  0  0  0
  1  2  1  0  0  0  0
  2  3  1  0  0  0  0
  2 19  1  1  0  0  0
  3 11  2  0  0  0  0
  4  5  2  0  0  0  0
  4  3  1  0  0  0  0
  5  9  1  0  0  0  0
  6  5  1  0  0  0  0
  6  7  1  0  0  0  0
  7  8  1  0  0  0  0
  9  8  1  0  0  0  0
  9 10  2  0  0  0  0
 11 10  1  0  0  0  0
 11 12  1  0  0  0  0
 12 13  1  0  0  0  0
 14 19  1  6  0  0  0
 14 15  1  0  0  0  0
 14 13  1  0  0  0  0
 14 16  1  0  0  0  0
 17 16  1  0  0  0  0
 18 17  1  0  0  0  0
 19 20  1  6  0  0  0
 19 18  1  0  0  0  0
 21 22  1  6  0  0  0
 21 20  1  0  0  0  0
 22 23  1  0  0  0  0
 25 26  2  0  0  0  0
 25 24  1  0  0  0  0
 27 30  1  6  0  0  0
 27 25  1  0  0  0  0
 28 29  1  0  0  0  0
 28 27  1  0  0  0  0
 31 30  1  0  0  0  0
 31 32  2  0  0  0  0
 33 31  1  0  0  0  0
 34 33  1  0  0  0  0
 35 27  1  0  0  0  0
 36 35  1  0  0  0  0
 37 36  1  0  0  0  0
 38 41  1  0  0  0  0
 38 37  1  0  0  0  0
 39 38  1  0  0  0  0
 40 38  1  0  0  0  0
 41 42  1  0  0  0  0
M  END
>  <minimizedAffinity>
-7.83316708

$$$$

 OpenBabel12271914563D

 42 46  0  0  1  0  0  0  0  0999 V2000
    8.9110   46.8520   44.5660 C   0  0  1  0  0  0  0  0  0  0  0  0
    8.9170   46.4850   42.9960 C   0  0  1  0  0  0  0  0  0  0  0  0
    8.7160   44.9920   42.4870 C   0  0  0  0  0  0  0  0  0  0  0  0
    8.5410   44.0150   43.4570 C   0  0  0  0  0  0  0  0  0  0  0  0
    8.2400   42.7560   43.0010 C   0  0  0  0  0  0  0  0  0  0  0  0
    8.0090   41.6350   43.8660 O   0  0  0  0  0  0  0  0  0  0  0  0
    7.5510   40.7700   42.7860 C   0  0  0  0  0  0  0  0  0  0  0  0
    7.7790   41.1140   41.4210 O   0  0  0  0  0  0  0  0  0  0  0  0
    8.1160   42.4180   41.6570 C   0  0  0  0  0  0  0  0  0  0  0  0
    8.2880   43.3630   40.6440 C   0  0  0  0  0  0  0  0  0  0  0  0
    8.5870   44.6630   41.0820 C   0  0  0  0  0  0  0  0  0  0  0  0
    8.6490   45.6900   39.9580 C   0  0  0  0  0  0  0  0  0  0  0  0
    7.9990   47.0610   40.1820 C   0  0  0  0  0  0  0  0  0  0  0  0
    6.9900   47.0510   41.2870 N   0  0  2  0  0  0  0  0  0  0  0  0
    6.5300   46.1340   41.3630 H   0  0  0  0  0  0  0  0  0  0  0  0
    5.9620   48.1370   41.1150 C   0  0  0  0  0  0  0  0  0  0  0  0
    6.7370   49.3730   41.6180 C   0  0  0  0  0  0  0  0  0  0  0  0
    7.8170   48.8770   42.5730 C   0  0  0  0  0  0  0  0  0  0  0  0
    7.5810   47.3490   42.6310 C   0  0  2  0  0  0  0  0  0  0  0  0
    6.6940   46.9780   43.8430 C   0  0  0  0  0  0  0  0  0  0  0  0
    7.4230   46.6090   44.9330 C   0  0  2  0  0  0  0  0  0  0  0  0
    6.8670   46.5960   46.1870 O   0  0  0  0  0  0  0  0  0  0  0  0
    6.8330   47.8630   46.7740 C   0  0  0  0  0  0  0  0  0  0  0  0
    9.9040   46.1270   45.3630 O   0  0  0  0  0  0  0  0  0  0  0  0
   10.4440   46.9440   46.3560 C   0  0  0  0  0  0  0  0  0  0  0  0
   10.8160   48.0760   46.0750 O   0  0  0  0  0  0  0  0  0  0  0  0
   10.4360   46.3240   47.7500 C   0  0  2  0  0  0  0  0  0  0  0  0
   11.6440   45.6120   47.9510 O   0  0  0  0  0  0  0  0  0  0  0  0
   11.8210   45.0830   47.1930 H   0  0  0  0  0  0  0  0  0  0  0  0
    9.3240   45.3280   48.0740 C   0  0  0  0  0  0  0  0  0  0  0  0
    9.9860   44.1260   48.7070 C   0  0  0  0  0  0  0  0  0  0  0  0
   10.0500   43.9390   49.8920 O   0  0  0  0  0  0  0  0  0  0  0  0
   10.3400   43.2310   47.7430 O   0  0  0  0  0  0  0  0  0  0  0  0
    9.2560   42.7390   46.9760 C   0  0  0  0  0  0  0  0  0  0  0  0
   10.4190   47.4980   48.8090 C   0  0  0  0  0  0  0  0  0  0  0  0
    9.3130   47.3070   49.8310 C   0  0  0  0  0  0  0  0  0  0  0  0
    9.6300   47.7000   51.2480 C   0  0  0  0  0  0  0  0  0  0  0  0
    8.4890   48.2720   52.0740 C   0  0  0  0  0  0  0  0  0  0  0  0
    8.6820   48.0340   53.5650 C   0  0  0  0  0  0  0  0  0  0  0  0
    7.1720   47.5350   51.6770 C   0  0  0  0  0  0  0  0  0  0  0  0
    8.3390   49.6450   51.8270 O   0  0  0  0  0  0  0  0  0  0  0  0
    8.5150   49.8570   50.9350 H   0  0  0  0  0  0  0  0  0  0  0  0
  1 21  1  0  0  0  0
  1 24  1  1  0  0  0
  2 19  1  6  0  0  0
  2  1  1  0  0  0  0
  3  2  1  0  0  0  0
  3  4  2  0  0  0  0
  5  4  1  0  0  0  0
  5  6  1  0  0  0  0
  7  6  1  0  0  0  0
  8  9  1  0  0  0  0
  8  7  1  0  0  0  0
  9  5  2  0  0  0  0
 10 11  2  0  0  0  0
 10  9  1  0  0  0  0
 11  3  1  0  0  0  0
 12 13  1  0  0  0  0
 12 11  1  0  0  0  0
 13 14  1  0  0  0  0
 14 15  1  0  0  0  0
 14 19  1  1  0  0  0
 16 14  1  0  0  0  0
 16 17  1  0  0  0  0
 17 18  1  0  0  0  0
 19 18  1  1  0  0  0
 19 20  1  0  0  0  0
 20 21  1  0  0  0  0
 21 22  1  1  0  0  0
 22 23  1  0  0  0  0
 24 25  1  0  0  0  0
 25 27  1  0  0  0  0
 26 25  2  0  0  0  0
 27 28  1  0  0  0  0
 27 30  1  1  0  0  0
 27 35  1  0  0  0  0
 29 28  1  0  0  0  0
 30 31  1  0  0  0  0
 31 32  2  0  0  0  0
 33 31  1  0  0  0  0
 34 33  1  0  0  0  0
 35 36  1  0  0  0  0
 36 37  1  0  0  0  0
 37 38  1  0  0  0  0
 38 39  1  0  0  0  0
 40 38  1  0  0  0  0
 41 38  1  0  0  0  0
 42 41  1  0  0  0  0
M  END
>  <minimizedAffinity>
-7.81680393

$$$$

 OpenBabel12271914563D

 42 46  0  0  1  0  0  0  0  0999 V2000
    8.1960   42.4920   43.4370 C   0  0  1  0  0  0  0  0  0  0  0  0
    6.8510   42.3950   42.5530 C   0  0  1  0  0  0  0  0  0  0  0  0
    6.9000   42.3220   40.9650 C   0  0  0  0  0  0  0  0  0  0  0  0
    8.1540   42.3520   40.3720 C   0  0  0  0  0  0  0  0  0  0  0  0
    8.1870   42.1590   39.0130 C   0  0  0  0  0  0  0  0  0  0  0  0
    9.3990   42.1420   38.2460 O   0  0  0  0  0  0  0  0  0  0  0  0
    8.7370   41.6890   37.0280 C   0  0  0  0  0  0  0  0  0  0  0  0
    7.3180   41.7470   36.8970 O   0  0  0  0  0  0  0  0  0  0  0  0
    7.0610   41.9510   38.2240 C   0  0  0  0  0  0  0  0  0  0  0  0
    5.7770   41.9170   38.7730 C   0  0  0  0  0  0  0  0  0  0  0  0
    5.7140   42.1020   40.1630 C   0  0  0  0  0  0  0  0  0  0  0  0
    4.3130   41.9390   40.7400 C   0  0  0  0  0  0  0  0  0  0  0  0
    4.1470   41.1580   42.0500 C   0  0  0  0  0  0  0  0  0  0  0  0
    5.3110   40.2640   42.3430 N   0  0  2  0  0  0  0  0  0  0  0  0
    5.7460   39.9230   41.4750 H   0  0  0  0  0  0  0  0  0  0  0  0
    4.9180   39.1050   43.2200 C   0  0  0  0  0  0  0  0  0  0  0  0
    4.8770   39.7750   44.6090 C   0  0  0  0  0  0  0  0  0  0  0  0
    5.7980   40.9890   44.5590 C   0  0  0  0  0  0  0  0  0  0  0  0
    6.3920   40.9390   43.1310 C   0  0  2  0  0  0  0  0  0  0  0  0
    7.7600   40.2180   43.1340 C   0  0  0  0  0  0  0  0  0  0  0  0
    8.8090   41.0820   43.2210 C   0  0  2  0  0  0  0  0  0  0  0  0
   10.0550   40.6510   43.5980 O   0  0  0  0  0  0  0  0  0  0  0  0
   10.0190   39.8110   44.7140 C   0  0  0  0  0  0  0  0  0  0  0  0
    9.0560   43.6320   43.1110 O   0  0  0  0  0  0  0  0  0  0  0  0
    8.8200   44.7020   43.9740 C   0  0  0  0  0  0  0  0  0  0  0  0
    8.8500   44.5230   45.1850 O   0  0  0  0  0  0  0  0  0  0  0  0
    8.6170   46.0410   43.2710 C   0  0  2  0  0  0  0  0  0  0  0  0
    9.5360   46.9850   43.7920 O   0  0  0  0  0  0  0  0  0  0  0  0
    9.5330   46.9320   44.7320 H   0  0  0  0  0  0  0  0  0  0  0  0
    7.2470   46.7030   43.3950 C   0  0  0  0  0  0  0  0  0  0  0  0
    7.4750   48.0700   43.9960 C   0  0  0  0  0  0  0  0  0  0  0  0
    7.4750   48.2950   45.1760 O   0  0  0  0  0  0  0  0  0  0  0  0
    7.8370   48.9500   43.0210 O   0  0  0  0  0  0  0  0  0  0  0  0
    7.4820   50.2950   43.2850 C   0  0  0  0  0  0  0  0  0  0  0  0
    8.9770   45.8530   41.7430 C   0  0  0  0  0  0  0  0  0  0  0  0
    7.7590   46.0470   40.8590 C   0  0  0  0  0  0  0  0  0  0  0  0
    8.0200   46.3010   39.3980 C   0  0  0  0  0  0  0  0  0  0  0  0
    7.2050   47.3990   38.7360 C   0  0  0  0  0  0  0  0  0  0  0  0
    8.0710   48.3380   37.9060 C   0  0  0  0  0  0  0  0  0  0  0  0
    6.5530   48.2740   39.8520 C   0  0  0  0  0  0  0  0  0  0  0  0
    6.1950   46.8510   37.9330 O   0  0  0  0  0  0  0  0  0  0  0  0
    5.8410   46.0720   38.3060 H   0  0  0  0  0  0  0  0  0  0  0  0
  1 24  1  6  0  0  0
  2 19  1  1  0  0  0
  2  1  1  0  0  0  0
  3  2  1  0  0  0  0
  4  3  1  0  0  0  0
  5  4  2  0  0  0  0
  6  5  1  0  0  0  0
  7  6  1  0  0  0  0
  8  7  1  0  0  0  0
  8  9  1  0  0  0  0
  9 10  2  0  0  0  0
  9  5  1  0  0  0  0
 10 11  1  0  0  0  0
 11 12  1  0  0  0  0
 11  3  2  0  0  0  0
 12 13  1  0  0  0  0
 13 14  1  0  0  0  0
 14 19  1  1  0  0  0
 14 16  1  0  0  0  0
 15 14  1  0  0  0  0
 16 17  1  0  0  0  0
 18 17  1  0  0  0  0
 19 20  1  1  0  0  0
 19 18  1  0  0  0  0
 20 21  1  0  0  0  0
 21  1  1  0  0  0  0
 21 22  1  1  0  0  0
 22 23  1  0  0  0  0
 24 25  1  0  0  0  0
 25 26  2  0  0  0  0
 27 35  1  6  0  0  0
 27 30  1  0  0  0  0
 27 28  1  0  0  0  0
 27 25  1  0  0  0  0
 28 29  1  0  0  0  0
 30 31  1  0  0  0  0
 31 32  2  0  0  0  0
 33 34  1  0  0  0  0
 33 31  1  0  0  0  0
 36 35  1  0  0  0  0
 37 36  1  0  0  0  0
 38 37  1  0  0  0  0
 38 40  1  0  0  0  0
 39 38  1  0  0  0  0
 41 42  1  0  0  0  0
 41 38  1  0  0  0  0
M  END
>  <minimizedAffinity>
-7.51123619

$$$$

 OpenBabel12271914563D

 42 46  0  0  1  0  0  0  0  0999 V2000
    8.1300   42.1010   41.6600 C   0  0  1  0  0  0  0  0  0  0  0  0
    8.6320   42.1730   43.1910 C   0  0  1  0  0  0  0  0  0  0  0  0
    8.7090   43.5520   43.9790 C   0  0  0  0  0  0  0  0  0  0  0  0
    8.3310   44.6940   43.2890 C   0  0  0  0  0  0  0  0  0  0  0  0
    8.2790   45.8560   44.0180 C   0  0  0  0  0  0  0  0  0  0  0  0
    7.8910   47.1210   43.4670 O   0  0  0  0  0  0  0  0  0  0  0  0
    7.8440   47.7840   44.7640 C   0  0  0  0  0  0  0  0  0  0  0  0
    8.4390   47.1900   45.9160 O   0  0  0  0  0  0  0  0  0  0  0  0
    8.5870   45.9440   45.3720 C   0  0  0  0  0  0  0  0  0  0  0  0
    8.9770   44.8250   46.1100 C   0  0  0  0  0  0  0  0  0  0  0  0
    9.0290   43.6210   45.3910 C   0  0  0  0  0  0  0  0  0  0  0  0
    9.3420   42.4030   46.2530 C   0  0  0  0  0  0  0  0  0  0  0  0
    8.5490   41.1130   46.0120 C   0  0  0  0  0  0  0  0  0  0  0  0
    7.2610   41.3500   45.2880 N   0  0  2  0  0  0  0  0  0  0  0  0
    6.8730   42.2760   45.5120 H   0  0  0  0  0  0  0  0  0  0  0  0
    6.2480   40.2760   45.5830 C   0  0  0  0  0  0  0  0  0  0  0  0
    6.7390   39.1350   44.6670 C   0  0  0  0  0  0  0  0  0  0  0  0
    7.5220   39.7720   43.5240 C   0  0  0  0  0  0  0  0  0  0  0  0
    7.4000   41.2900   43.7980 C   0  0  2  0  0  0  0  0  0  0  0  0
    6.2260   41.8980   42.9960 C   0  0  0  0  0  0  0  0  0  0  0  0
    6.6240   42.4430   41.8130 C   0  0  2  0  0  0  0  0  0  0  0  0
    5.7240   42.7000   40.8110 O   0  0  0  0  0  0  0  0  0  0  0  0
    4.9950   41.5670   40.4390 C   0  0  0  0  0  0  0  0  0  0  0  0
    8.8960   42.9370   40.7310 O   0  0  0  0  0  0  0  0  0  0  0  0
    8.5240   42.6860   39.4100 C   0  0  0  0  0  0  0  0  0  0  0  0
    8.4330   41.5310   39.0130 O   0  0  0  0  0  0  0  0  0  0  0  0
    8.1900   43.9390   38.6050 C   0  0  2  0  0  0  0  0  0  0  0  0
    6.7860   44.1260   38.5950 O   0  0  0  0  0  0  0  0  0  0  0  0
    6.3660   43.3060   38.4010 H   0  0  0  0  0  0  0  0  0  0  0  0
    8.6100   43.9680   37.1370 C   0  0  0  0  0  0  0  0  0  0  0  0
    7.3390   43.9670   36.3200 C   0  0  0  0  0  0  0  0  0  0  0  0
    6.6970   42.9820   36.0740 O   0  0  0  0  0  0  0  0  0  0  0  0
    6.9570   45.2490   36.0560 O   0  0  0  0  0  0  0  0  0  0  0  0
    5.8830   45.3620   35.1410 C   0  0  0  0  0  0  0  0  0  0  0  0
    8.8090   45.1850   39.3570 C   0  0  0  0  0  0  0  0  0  0  0  0
    7.7340   46.0060   40.0450 C   0  0  0  0  0  0  0  0  0  0  0  0
    7.8240   47.5010   39.8890 C   0  0  0  0  0  0  0  0  0  0  0  0
    7.1240   48.1080   38.6840 C   0  0  0  0  0  0  0  0  0  0  0  0
    8.1090   48.6080   37.6360 C   0  0  0  0  0  0  0  0  0  0  0  0
    6.3150   49.3560   39.1580 C   0  0  0  0  0  0  0  0  0  0  0  0
    6.2430   47.1830   38.1050 O   0  0  0  0  0  0  0  0  0  0  0  0
    5.8340   46.6460   38.7490 H   0  0  0  0  0  0  0  0  0  0  0  0
  1 24  1  6  0  0  0
  1 21  1  0  0  0  0
  1  2  1  0  0  0  0
  2 19  1  1  0  0  0
  2  3  1  0  0  0  0
  3 11  1  0  0  0  0
  4  3  2  0  0  0  0
  4  5  1  0  0  0  0
  5  9  2  0  0  0  0
  6  5  1  0  0  0  0
  6  7  1  0  0  0  0
  7  8  1  0  0  0  0
  9  8  1  0  0  0  0
  9 10  1  0  0  0  0
 11 10  2  0  0  0  0
 11 12  1  0  0  0  0
 13 12  1  0  0  0  0
 14 19  1  6  0  0  0
 14 15  1  0  0  0  0
 14 16  1  0  0  0  0
 14 13  1  0  0  0  0
 17 16  1  0  0  0  0
 18 19  1  0  0  0  0
 18 17  1  0  0  0  0
 19 20  1  6  0  0  0
 21 22  1  6  0  0  0
 21 20  1  0  0  0  0
 23 22  1  0  0  0  0
 25 24  1  0  0  0  0
 26 25  2  0  0  0  0
 27 30  1  6  0  0  0
 27 35  1  0  0  0  0
 27 25  1  0  0  0  0
 28 27  1  0  0  0  0
 29 28  1  0  0  0  0
 31 30  1  0  0  0  0
 32 31  2  0  0  0  0
 33 31  1  0  0  0  0
 34 33  1  0  0  0  0
 35 36  1  0  0  0  0
 37 36  1  0  0  0  0
 38 40  1  0  0  0  0
 38 37  1  0  0  0  0
 39 38  1  0  0  0  0
 41 38  1  0  0  0  0
 41 42  1  0  0  0  0
M  END
>  <minimizedAffinity>
-7.37246704

$$$$

 OpenBabel12271914563D

 42 46  0  0  1  0  0  0  0  0999 V2000
   10.1000   47.1900   50.4160 C   0  0  1  0  0  0  0  0  0  0  0  0
    9.2070   46.5700   51.6080 C   0  0  1  0  0  0  0  0  0  0  0  0
    9.7710   45.4390   52.5720 C   0  0  0  0  0  0  0  0  0  0  0  0
   11.0670   45.0020   52.3390 C   0  0  0  0  0  0  0  0  0  0  0  0
   11.5850   44.1220   53.2560 C   0  0  0  0  0  0  0  0  0  0  0  0
   12.9130   43.5860   53.1780 O   0  0  0  0  0  0  0  0  0  0  0  0
   12.8490   42.9700   54.4980 C   0  0  0  0  0  0  0  0  0  0  0  0
   11.6030   42.8060   55.1730 O   0  0  0  0  0  0  0  0  0  0  0  0
   10.8920   43.6520   54.3670 C   0  0  0  0  0  0  0  0  0  0  0  0
    9.5850   44.0570   54.6420 C   0  0  0  0  0  0  0  0  0  0  0  0
    9.0330   44.9650   53.7250 C   0  0  0  0  0  0  0  0  0  0  0  0
    7.6530   45.4760   54.1220 C   0  0  0  0  0  0  0  0  0  0  0  0
    7.3460   46.9680   53.9470 C   0  0  0  0  0  0  0  0  0  0  0  0
    8.5820   47.8070   53.8510 N   0  0  2  0  0  0  0  0  0  0  0  0
    9.3530   47.3980   54.3970 H   0  0  0  0  0  0  0  0  0  0  0  0
    8.3300   49.2260   54.2870 C   0  0  0  0  0  0  0  0  0  0  0  0
    7.6420   49.8110   53.0360 C   0  0  0  0  0  0  0  0  0  0  0  0
    8.0900   48.9800   51.8380 C   0  0  0  0  0  0  0  0  0  0  0  0
    9.0840   47.9640   52.4490 C   0  0  2  0  0  0  0  0  0  0  0  0
   10.5380   48.4750   52.3160 C   0  0  0  0  0  0  0  0  0  0  0  0
   11.1690   47.9820   51.2150 C   0  0  2  0  0  0  0  0  0  0  0  0
   12.3030   48.5760   50.7220 O   0  0  0  0  0  0  0  0  0  0  0  0
   12.6880   49.6980   51.4610 C   0  0  0  0  0  0  0  0  0  0  0  0
   10.6040   46.2020   49.4590 O   0  0  0  0  0  0  0  0  0  0  0  0
   10.2020   46.5130   48.1600 C   0  0  0  0  0  0  0  0  0  0  0  0
   10.7960   47.3810   47.5320 O   0  0  0  0  0  0  0  0  0  0  0  0
    9.0670   45.6420   47.6290 C   0  0  2  0  0  0  0  0  0  0  0  0
    8.5090   44.9010   48.7000 O   0  0  0  0  0  0  0  0  0  0  0  0
    9.2030   44.5230   49.2100 H   0  0  0  0  0  0  0  0  0  0  0  0
    9.4120   44.6060   46.5610 C   0  0  0  0  0  0  0  0  0  0  0  0
    9.5770   43.2840   47.2720 C   0  0  0  0  0  0  0  0  0  0  0  0
    8.8640   42.3330   47.1000 O   0  0  0  0  0  0  0  0  0  0  0  0
   10.7330   43.2880   47.9950 O   0  0  0  0  0  0  0  0  0  0  0  0
   11.0980   42.0240   48.5190 C   0  0  0  0  0  0  0  0  0  0  0  0
    7.9260   46.5950   47.0920 C   0  0  0  0  0  0  0  0  0  0  0  0
    7.9570   46.6980   45.5780 C   0  0  0  0  0  0  0  0  0  0  0  0
    8.2100   48.0640   45.0000 C   0  0  0  0  0  0  0  0  0  0  0  0
    7.9030   48.2520   43.5240 C   0  0  0  0  0  0  0  0  0  0  0  0
    9.0020   47.6940   42.6310 C   0  0  0  0  0  0  0  0  0  0  0  0
    7.8270   49.7820   43.2240 C   0  0  0  0  0  0  0  0  0  0  0  0
    6.6750   47.6590   43.1930 O   0  0  0  0  0  0  0  0  0  0  0  0
    6.0540   47.7410   43.8850 H   0  0  0  0  0  0  0  0  0  0  0  0
  1 24  1  1  0  0  0
  1 21  1  0  0  0  0
  1  2  1  0  0  0  0
  2 19  1  1  0  0  0
  2  3  1  0  0  0  0
  3 11  1  0  0  0  0
  4  3  2  0  0  0  0
  4  5  1  0  0  0  0
  5  9  2  0  0  0  0
  6  5  1  0  0  0  0
  6  7  1  0  0  0  0
  7  8  1  0  0  0  0
  9 10  1  0  0  0  0
  9  8  1  0  0  0  0
 11 12  1  0  0  0  0
 11 10  2  0  0  0  0
 13 12  1  0  0  0  0
 14 19  1  6  0  0  0
 14 13  1  0  0  0  0
 14 16  1  0  0  0  0
 14 15  1  0  0  0  0
 17 16  1  0  0  0  0
 18 17  1  0  0  0  0
 19 18  1  6  0  0  0
 20 19  1  0  0  0  0
 21 22  1  6  0  0  0
 21 20  1  0  0  0  0
 22 23  1  0  0  0  0
 25 24  1  0  0  0  0
 26 25  2  0  0  0  0
 27 30  1  6  0  0  0
 27 25  1  0  0  0  0
 27 28  1  0  0  0  0
 28 29  1  0  0  0  0
 30 31  1  0  0  0  0
 31 33  1  0  0  0  0
 32 31  2  0  0  0  0
 33 34  1  0  0  0  0
 35 27  1  0  0  0  0
 36 35  1  0  0  0  0
 37 36  2  0  0  0  0
 38 37  1  0  0  0  0
 39 38  1  0  0  0  0
 40 38  1  0  0  0  0
 41 38  1  0  0  0  0
 41 42  1  0  0  0  0
M  END
>  <minimizedAffinity>
-7.29546642

$$$$
