
 OpenBabel12271915003D

 27 29  0  0  1  0  0  0  0  0999 V2000
    7.7210   47.8040   44.2700 C   0  0  1  0  0  0  0  0  0  0  0  0
    8.7060   46.9090   43.6390 N   0  0  0  0  0  0  0  0  0  0  0  0
    9.4610   47.4700   43.1810 H   0  0  0  0  0  0  0  0  0  0  0  0
    9.5650   46.4110   44.9050 O   0  0  0  0  0  0  0  0  0  0  0  0
    9.1060   47.2410   45.9960 C   0  0  2  0  0  0  0  0  0  0  0  0
   10.3740   47.6100   46.7310 C   0  0  1  0  0  0  0  0  0  0  0  0
   10.3930   47.0280   48.1210 C   0  0  2  0  0  0  0  0  0  0  0  0
    9.1040   47.2930   48.7820 C   0  0  1  0  0  0  0  0  0  0  0  0
    8.0440   46.4810   48.0760 C   0  0  2  0  0  0  0  0  0  0  0  0
    8.1340   46.3810   46.6370 O   0  0  0  0  0  0  0  0  0  0  0  0
    8.3910   48.4030   45.4410 C   0  0  0  0  0  0  0  0  0  0  0  0
    7.3470   48.7610   43.1850 C   0  0  0  0  0  0  0  0  0  0  0  0
    6.7460   48.2690   42.0110 C   0  0  0  0  0  0  0  0  0  0  0  0
    6.4130   49.1180   40.9910 C   0  0  0  0  0  0  0  0  0  0  0  0
    6.6330   50.4810   41.0960 C   0  0  0  0  0  0  0  0  0  0  0  0
    6.2340   51.3360   39.9380 C   0  0  0  0  0  0  0  0  0  0  0  0
    7.2420   50.9840   42.2440 C   0  0  0  0  0  0  0  0  0  0  0  0
    7.5900   50.1250   43.2840 C   0  0  0  0  0  0  0  0  0  0  0  0
   11.4430   47.7300   48.8470 O   0  0  0  0  0  0  0  0  0  0  0  0
   11.4690   47.2960   49.7180 H   0  0  0  0  0  0  0  0  0  0  0  0
   11.5490   47.1900   45.9960 O   0  0  0  0  0  0  0  0  0  0  0  0
   11.5090   46.2140   45.9500 H   0  0  0  0  0  0  0  0  0  0  0  0
    9.1690   46.8030   50.1250 O   0  0  0  0  0  0  0  0  0  0  0  0
    8.5780   46.0280   50.1930 H   0  0  0  0  0  0  0  0  0  0  0  0
    6.6890   46.9630   48.4350 C   0  0  0  0  0  0  0  0  0  0  0  0
    6.8630   48.1610   49.2080 O   0  0  0  0  0  0  0  0  0  0  0  0
    6.2530   48.1430   49.9680 H   0  0  0  0  0  0  0  0  0  0  0  0
  1 12  1  6  0  0  0
  1 11  1  0  0  0  0
  2  1  1  0  0  0  0
  2  4  1  0  0  0  0
  3  2  1  0  0  0  0
  4  5  1  0  0  0  0
  5 11  1  6  0  0  0
  5 10  1  0  0  0  0
  6  5  1  6  0  0  0
  6  7  1  0  0  0  0
  7  8  1  0  0  0  0
  7 19  1  1  0  0  0
  8 23  1  1  0  0  0
  9 25  1  6  0  0  0
  9  8  1  0  0  0  0
 10  9  1  0  0  0  0
 12 18  1  0  0  0  0
 13 12  2  0  0  0  0
 14 15  2  0  0  0  0
 14 13  1  0  0  0  0
 15 17  1  0  0  0  0
 16 15  1  0  0  0  0
 17 18  2  0  0  0  0
 19 20  1  0  0  0  0
 21  6  1  0  0  0  0
 22 21  1  0  0  0  0
 23 24  1  0  0  0  0
 25 26  1  0  0  0  0
 26 27  1  0  0  0  0
M  END
>  <minimizedAffinity>
-9.17337608

$$$$

 OpenBabel12271915003D

 27 29  0  0  1  0  0  0  0  0999 V2000
    8.6160   48.2480   42.8890 C   0  0  1  0  0  0  0  0  0  0  0  0
    9.4590   48.0740   44.0840 N   0  0  0  0  0  0  0  0  0  0  0  0
    8.9050   48.2790   44.9480 H   0  0  0  0  0  0  0  0  0  0  0  0
    9.4920   46.4730   44.2410 O   0  0  0  0  0  0  0  0  0  0  0  0
    8.5150   46.0020   43.2860 C   0  0  2  0  0  0  0  0  0  0  0  0
    7.7760   44.9120   44.0270 C   0  0  1  0  0  0  0  0  0  0  0  0
    8.0000   43.5640   43.3920 C   0  0  2  0  0  0  0  0  0  0  0  0
    7.8050   43.6690   41.9360 C   0  0  1  0  0  0  0  0  0  0  0  0
    8.9250   44.5120   41.3760 C   0  0  2  0  0  0  0  0  0  0  0  0
    9.3480   45.6550   42.1530 O   0  0  0  0  0  0  0  0  0  0  0  0
    7.6540   47.1290   42.8890 C   0  0  0  0  0  0  0  0  0  0  0  0
    8.0210   49.6080   43.0540 C   0  0  0  0  0  0  0  0  0  0  0  0
    7.3190   50.1870   41.9800 C   0  0  0  0  0  0  0  0  0  0  0  0
    6.7830   51.4410   42.0940 C   0  0  0  0  0  0  0  0  0  0  0  0
    6.8930   52.1610   43.2720 C   0  0  0  0  0  0  0  0  0  0  0  0
    6.2740   53.5190   43.3120 C   0  0  0  0  0  0  0  0  0  0  0  0
    7.6000   51.6100   44.3400 C   0  0  0  0  0  0  0  0  0  0  0  0
    8.1540   50.3370   44.2290 C   0  0  0  0  0  0  0  0  0  0  0  0
    6.9810   42.6770   43.9370 O   0  0  0  0  0  0  0  0  0  0  0  0
    7.1860   41.8060   43.5540 H   0  0  0  0  0  0  0  0  0  0  0  0
    8.1570   44.8760   45.4250 O   0  0  0  0  0  0  0  0  0  0  0  0
    9.1080   44.6530   45.4440 H   0  0  0  0  0  0  0  0  0  0  0  0
    7.9440   42.3660   41.3600 O   0  0  0  0  0  0  0  0  0  0  0  0
    8.7670   42.3540   40.8350 H   0  0  0  0  0  0  0  0  0  0  0  0
    8.6040   44.9640   40.0010 C   0  0  0  0  0  0  0  0  0  0  0  0
    7.1750   44.9250   39.8710 O   0  0  0  0  0  0  0  0  0  0  0  0
    6.9430   44.5410   39.0070 H   0  0  0  0  0  0  0  0  0  0  0  0
  1 12  1  1  0  0  0
  1  2  1  0  0  0  0
  2  4  1  0  0  0  0
  2  3  1  0  0  0  0
  5 11  1  6  0  0  0
  5  4  1  0  0  0  0
  6  5  1  6  0  0  0
  6 21  1  0  0  0  0
  7 19  1  1  0  0  0
  7  6  1  0  0  0  0
  8 23  1  6  0  0  0
  8  7  1  0  0  0  0
  9 25  1  6  0  0  0
  9  8  1  0  0  0  0
  9 10  1  0  0  0  0
 10  5  1  0  0  0  0
 11  1  1  0  0  0  0
 12 18  2  0  0  0  0
 13 14  2  0  0  0  0
 13 12  1  0  0  0  0
 14 15  1  0  0  0  0
 15 16  1  0  0  0  0
 15 17  2  0  0  0  0
 18 17  1  0  0  0  0
 20 19  1  0  0  0  0
 21 22  1  0  0  0  0
 24 23  1  0  0  0  0
 26 25  1  0  0  0  0
 27 26  1  0  0  0  0
M  END
>  <minimizedAffinity>
-8.48265934

$$$$

 OpenBabel12271915003D

 27 29  0  0  1  0  0  0  0  0999 V2000
    9.6880   46.9190   46.1020 C   0  0  1  0  0  0  0  0  0  0  0  0
   11.0730   47.4160   46.0480 N   0  0  0  0  0  0  0  0  0  0  0  0
   11.0820   48.4610   46.1020 H   0  0  0  0  0  0  0  0  0  0  0  0
   11.5880   47.1340   47.5460 O   0  0  0  0  0  0  0  0  0  0  0  0
   10.3970   46.7440   48.2660 C   0  0  2  0  0  0  0  0  0  0  0  0
   10.5170   47.4660   49.5870 C   0  0  1  0  0  0  0  0  0  0  0  0
   10.6650   46.4980   50.7330 C   0  0  2  0  0  0  0  0  0  0  0  0
    9.6550   45.4340   50.6110 C   0  0  1  0  0  0  0  0  0  0  0  0
   10.0000   44.6010   49.3990 C   0  0  2  0  0  0  0  0  0  0  0  0
   10.4880   45.2980   48.2320 O   0  0  0  0  0  0  0  0  0  0  0  0
    9.2160   47.1440   47.4830 C   0  0  0  0  0  0  0  0  0  0  0  0
    8.9760   47.6980   45.0450 C   0  0  0  0  0  0  0  0  0  0  0  0
    9.5480   48.8920   44.5670 C   0  0  0  0  0  0  0  0  0  0  0  0
    8.9080   49.6390   43.6150 C   0  0  0  0  0  0  0  0  0  0  0  0
    7.6990   49.2280   43.0790 C   0  0  0  0  0  0  0  0  0  0  0  0
    7.0730   50.0990   42.0410 C   0  0  0  0  0  0  0  0  0  0  0  0
    7.1100   48.0560   43.5520 C   0  0  0  0  0  0  0  0  0  0  0  0
    7.7520   47.2940   44.5260 C   0  0  0  0  0  0  0  0  0  0  0  0
   10.4030   47.2550   51.9490 O   0  0  0  0  0  0  0  0  0  0  0  0
   10.5620   46.6210   52.6700 H   0  0  0  0  0  0  0  0  0  0  0  0
   11.6210   48.4030   49.5760 O   0  0  0  0  0  0  0  0  0  0  0  0
   12.4320   47.8700   49.4590 H   0  0  0  0  0  0  0  0  0  0  0  0
    9.7610   44.5700   51.7470 O   0  0  0  0  0  0  0  0  0  0  0  0
   10.1080   43.7100   51.4410 H   0  0  0  0  0  0  0  0  0  0  0  0
    8.8510   43.7540   49.0020 C   0  0  0  0  0  0  0  0  0  0  0  0
    8.9000   43.6260   47.5730 O   0  0  0  0  0  0  0  0  0  0  0  0
    8.0010   43.7290   47.2110 H   0  0  0  0  0  0  0  0  0  0  0  0
  1 12  1  6  0  0  0
  1 11  1  0  0  0  0
  2  1  1  0  0  0  0
  2  3  1  0  0  0  0
  2  4  1  0  0  0  0
  4  5  1  0  0  0  0
  5 11  1  6  0  0  0
  6  5  1  6  0  0  0
  6  7  1  0  0  0  0
  7 19  1  1  0  0  0
  8  7  1  0  0  0  0
  8 23  1  1  0  0  0
  9 25  1  6  0  0  0
  9  8  1  0  0  0  0
 10  5  1  0  0  0  0
 10  9  1  0  0  0  0
 13 12  1  0  0  0  0
 14 13  2  0  0  0  0
 15 17  2  0  0  0  0
 15 14  1  0  0  0  0
 16 15  1  0  0  0  0
 17 18  1  0  0  0  0
 18 12  2  0  0  0  0
 19 20  1  0  0  0  0
 21  6  1  0  0  0  0
 22 21  1  0  0  0  0
 24 23  1  0  0  0  0
 26 25  1  0  0  0  0
 27 26  1  0  0  0  0
M  END
>  <minimizedAffinity>
-8.39446163

$$$$

 OpenBabel12271915003D

 27 29  0  0  1  0  0  0  0  0999 V2000
    6.9870   49.3330   42.7740 C   0  0  1  0  0  0  0  0  0  0  0  0
    6.3250   48.7610   41.5890 N   0  0  0  0  0  0  0  0  0  0  0  0
    6.8540   49.0170   40.7230 H   0  0  0  0  0  0  0  0  0  0  0  0
    6.7850   47.2210   41.6580 O   0  0  0  0  0  0  0  0  0  0  0  0
    7.7860   47.1940   42.7010 C   0  0  2  0  0  0  0  0  0  0  0  0
    8.8690   46.3000   42.1440 C   0  0  1  0  0  0  0  0  0  0  0  0
    9.0140   45.0390   42.9560 C   0  0  2  0  0  0  0  0  0  0  0  0
    9.0610   45.3800   44.3870 C   0  0  1  0  0  0  0  0  0  0  0  0
    7.7020   45.9010   44.7880 C   0  0  2  0  0  0  0  0  0  0  0  0
    7.0140   46.7530   43.8440 O   0  0  0  0  0  0  0  0  0  0  0  0
    8.2380   48.5720   42.9610 C   0  0  0  0  0  0  0  0  0  0  0  0
    7.1580   50.7780   42.4380 C   0  0  0  0  0  0  0  0  0  0  0  0
    6.9750   51.2020   41.1080 C   0  0  0  0  0  0  0  0  0  0  0  0
    7.1470   52.5160   40.7660 C   0  0  0  0  0  0  0  0  0  0  0  0
    7.4790   53.4640   41.7190 C   0  0  0  0  0  0  0  0  0  0  0  0
    7.6420   54.8760   41.2610 C   0  0  0  0  0  0  0  0  0  0  0  0
    7.6820   53.0590   43.0380 C   0  0  0  0  0  0  0  0  0  0  0  0
    7.5150   51.7230   43.3920 C   0  0  0  0  0  0  0  0  0  0  0  0
   10.2880   44.4470   42.5730 O   0  0  0  0  0  0  0  0  0  0  0  0
   10.3270   43.6100   43.0690 H   0  0  0  0  0  0  0  0  0  0  0  0
    8.6200   45.9760   40.7540 O   0  0  0  0  0  0  0  0  0  0  0  0
    7.7840   45.4710   40.7370 H   0  0  0  0  0  0  0  0  0  0  0  0
    9.2770   44.1790   45.1370 O   0  0  0  0  0  0  0  0  0  0  0  0
    8.4590   43.9800   45.6320 H   0  0  0  0  0  0  0  0  0  0  0  0
    7.7710   46.5970   46.0940 C   0  0  0  0  0  0  0  0  0  0  0  0
    8.0300   45.5950   47.0890 O   0  0  0  0  0  0  0  0  0  0  0  0
    7.4650   45.7600   47.8650 H   0  0  0  0  0  0  0  0  0  0  0  0
  1 12  1  6  0  0  0
  1 11  1  0  0  0  0
  2  4  1  0  0  0  0
  2  1  1  0  0  0  0
  3  2  1  0  0  0  0
  4  5  1  0  0  0  0
  5 11  1  1  0  0  0
  5 10  1  0  0  0  0
  6  5  1  1  0  0  0
  6  7  1  0  0  0  0
  7 19  1  6  0  0  0
  7  8  1  0  0  0  0
  8  9  1  0  0  0  0
  8 23  1  1  0  0  0
  9 25  1  1  0  0  0
 10  9  1  0  0  0  0
 12 18  2  0  0  0  0
 13 12  1  0  0  0  0
 14 13  2  0  0  0  0
 14 15  1  0  0  0  0
 15 17  2  0  0  0  0
 16 15  1  0  0  0  0
 17 18  1  0  0  0  0
 19 20  1  0  0  0  0
 21  6  1  0  0  0  0
 22 21  1  0  0  0  0
 23 24  1  0  0  0  0
 25 26  1  0  0  0  0
 26 27  1  0  0  0  0
M  END
>  <minimizedAffinity>
-8.31676865

$$$$

 OpenBabel12271915003D

 27 29  0  0  1  0  0  0  0  0999 V2000
    6.6950   48.1920   43.0490 C   0  0  1  0  0  0  0  0  0  0  0  0
    6.9300   46.9100   42.3640 N   0  0  0  0  0  0  0  0  0  0  0  0
    7.7360   46.9980   41.7040 H   0  0  0  0  0  0  0  0  0  0  0  0
    7.6920   46.0590   43.4990 O   0  0  0  0  0  0  0  0  0  0  0  0
    7.9690   47.0220   44.5400 C   0  0  2  0  0  0  0  0  0  0  0  0
    9.3800   46.6980   44.9700 C   0  0  1  0  0  0  0  0  0  0  0  0
    9.4250   46.2090   46.3940 C   0  0  2  0  0  0  0  0  0  0  0  0
    8.6270   47.1060   47.2460 C   0  0  1  0  0  0  0  0  0  0  0  0
    7.1760   46.9440   46.8640 C   0  0  2  0  0  0  0  0  0  0  0  0
    6.8730   46.7910   45.4590 O   0  0  0  0  0  0  0  0  0  0  0  0
    7.8200   48.3790   43.9860 C   0  0  0  0  0  0  0  0  0  0  0  0
    6.6090   49.1900   41.9410 C   0  0  0  0  0  0  0  0  0  0  0  0
    6.9380   50.5340   42.1980 C   0  0  0  0  0  0  0  0  0  0  0  0
    6.8470   51.4750   41.2090 C   0  0  0  0  0  0  0  0  0  0  0  0
    6.4550   51.1270   39.9270 C   0  0  0  0  0  0  0  0  0  0  0  0
    6.3880   52.2150   38.9060 C   0  0  0  0  0  0  0  0  0  0  0  0
    6.1090   49.8040   39.6580 C   0  0  0  0  0  0  0  0  0  0  0  0
    6.1930   48.8420   40.6620 C   0  0  0  0  0  0  0  0  0  0  0  0
   10.8180   46.2810   46.8120 O   0  0  0  0  0  0  0  0  0  0  0  0
   10.8230   45.9070   47.7110 H   0  0  0  0  0  0  0  0  0  0  0  0
    9.9880   45.7240   44.0860 O   0  0  0  0  0  0  0  0  0  0  0  0
    9.4600   44.9070   44.1730 H   0  0  0  0  0  0  0  0  0  0  0  0
    8.7450   46.6700   48.6050 O   0  0  0  0  0  0  0  0  0  0  0  0
    7.8810   46.3100   48.8830 H   0  0  0  0  0  0  0  0  0  0  0  0
    6.3630   48.0570   47.4080 C   0  0  0  0  0  0  0  0  0  0  0  0
    6.5090   48.0230   48.8350 O   0  0  0  0  0  0  0  0  0  0  0  0
    5.6380   48.1640   49.2500 H   0  0  0  0  0  0  0  0  0  0  0  0
  1 12  1  6  0  0  0
  1 11  1  0  0  0  0
  2  1  1  0  0  0  0
  2  4  1  0  0  0  0
  3  2  1  0  0  0  0
  4  5  1  0  0  0  0
  5 11  1  6  0  0  0
  5 10  1  0  0  0  0
  6  5  1  6  0  0  0
  6  7  1  0  0  0  0
  7 19  1  1  0  0  0
  7  8  1  0  0  0  0
  8 23  1  1  0  0  0
  9  8  1  0  0  0  0
  9 25  1  6  0  0  0
 10  9  1  0  0  0  0
 12 13  1  0  0  0  0
 14 13  2  0  0  0  0
 15 14  1  0  0  0  0
 16 15  1  0  0  0  0
 17 15  2  0  0  0  0
 17 18  1  0  0  0  0
 18 12  2  0  0  0  0
 19 20  1  0  0  0  0
 21 22  1  0  0  0  0
 21  6  1  0  0  0  0
 23 24  1  0  0  0  0
 25 26  1  0  0  0  0
 26 27  1  0  0  0  0
M  END
>  <minimizedAffinity>
-8.2396183

$$$$

 OpenBabel12271915003D

 27 29  0  0  1  0  0  0  0  0999 V2000
    8.6410   47.9020   42.6840 C   0  0  1  0  0  0  0  0  0  0  0  0
    9.4130   47.4000   43.8330 N   0  0  0  0  0  0  0  0  0  0  0  0
    8.8270   47.4290   44.6990 H   0  0  0  0  0  0  0  0  0  0  0  0
    9.3570   45.8090   43.6050 O   0  0  0  0  0  0  0  0  0  0  0  0
    8.4080   45.6360   42.5290 C   0  0  2  0  0  0  0  0  0  0  0  0
    7.5790   44.4490   42.9620 C   0  0  1  0  0  0  0  0  0  0  0  0
    7.7660   43.2780   42.0320 C   0  0  2  0  0  0  0  0  0  0  0  0
    7.6510   43.7350   40.6370 C   0  0  1  0  0  0  0  0  0  0  0  0
    8.8400   44.6170   40.3360 C   0  0  2  0  0  0  0  0  0  0  0  0
    9.2790   45.5160   41.3780 O   0  0  0  0  0  0  0  0  0  0  0  0
    7.6250   46.8750   42.3810 C   0  0  0  0  0  0  0  0  0  0  0  0
    8.1070   49.2180   43.1450 C   0  0  0  0  0  0  0  0  0  0  0  0
    8.1860   49.5530   44.5100 C   0  0  0  0  0  0  0  0  0  0  0  0
    7.6850   50.7410   44.9660 C   0  0  0  0  0  0  0  0  0  0  0  0
    7.1120   51.6550   44.0970 C   0  0  0  0  0  0  0  0  0  0  0  0
    6.5950   52.9300   44.6780 C   0  0  0  0  0  0  0  0  0  0  0  0
    7.0100   51.3330   42.7450 C   0  0  0  0  0  0  0  0  0  0  0  0
    7.5120   50.1220   42.2740 C   0  0  0  0  0  0  0  0  0  0  0  0
    6.6790   42.3500   42.3120 O   0  0  0  0  0  0  0  0  0  0  0  0
    6.8580   41.5840   41.7400 H   0  0  0  0  0  0  0  0  0  0  0  0
    7.8860   44.0610   44.3240 O   0  0  0  0  0  0  0  0  0  0  0  0
    8.8220   43.7820   44.3250 H   0  0  0  0  0  0  0  0  0  0  0  0
    7.7540   42.5980   39.7730 O   0  0  0  0  0  0  0  0  0  0  0  0
    8.6020   42.6600   39.2910 H   0  0  0  0  0  0  0  0  0  0  0  0
    8.6120   45.3980   39.0980 C   0  0  0  0  0  0  0  0  0  0  0  0
    9.0360   44.5760   38.0010 O   0  0  0  0  0  0  0  0  0  0  0  0
    9.5420   45.1190   37.3700 H   0  0  0  0  0  0  0  0  0  0  0  0
  1 12  1  1  0  0  0
  1  2  1  0  0  0  0
  2  3  1  0  0  0  0
  4  2  1  0  0  0  0
  5 11  1  6  0  0  0
  5  4  1  0  0  0  0
  6  5  1  6  0  0  0
  6 21  1  0  0  0  0
  7 19  1  1  0  0  0
  7  6  1  0  0  0  0
  8 23  1  6  0  0  0
  8  7  1  0  0  0  0
  9 25  1  6  0  0  0
  9  8  1  0  0  0  0
  9 10  1  0  0  0  0
 10  5  1  0  0  0  0
 11  1  1  0  0  0  0
 12 13  2  0  0  0  0
 13 14  1  0  0  0  0
 15 16  1  0  0  0  0
 15 14  2  0  0  0  0
 17 15  1  0  0  0  0
 18 17  2  0  0  0  0
 18 12  1  0  0  0  0
 20 19  1  0  0  0  0
 21 22  1  0  0  0  0
 24 23  1  0  0  0  0
 26 25  1  0  0  0  0
 27 26  1  0  0  0  0
M  END
>  <minimizedAffinity>
-8.12078094

$$$$

 OpenBabel12271915003D

 27 29  0  0  1  0  0  0  0  0999 V2000
   10.0730   46.9010   48.6460 C   0  0  1  0  0  0  0  0  0  0  0  0
   11.3190   47.6850   48.6050 N   0  0  0  0  0  0  0  0  0  0  0  0
   11.1060   48.6870   48.3930 H   0  0  0  0  0  0  0  0  0  0  0  0
   11.6450   47.8760   50.1690 O   0  0  0  0  0  0  0  0  0  0  0  0
   10.4630   47.3880   50.8430 C   0  0  2  0  0  0  0  0  0  0  0  0
   10.2280   48.3960   51.9430 C   0  0  1  0  0  0  0  0  0  0  0  0
   10.3940   47.7740   53.3050 C   0  0  2  0  0  0  0  0  0  0  0  0
    9.6530   46.5020   53.3570 C   0  0  1  0  0  0  0  0  0  0  0  0
   10.3420   45.5230   52.4370 C   0  0  2  0  0  0  0  0  0  0  0  0
   10.8510   46.0360   51.1850 O   0  0  0  0  0  0  0  0  0  0  0  0
    9.3590   47.3130   49.8700 C   0  0  0  0  0  0  0  0  0  0  0  0
    9.3890   47.2320   47.3600 C   0  0  0  0  0  0  0  0  0  0  0  0
   10.1640   47.5360   46.2250 C   0  0  0  0  0  0  0  0  0  0  0  0
    9.5650   47.8650   45.0400 C   0  0  0  0  0  0  0  0  0  0  0  0
    8.1860   47.8840   44.9180 C   0  0  0  0  0  0  0  0  0  0  0  0
    7.6150   48.2480   43.5870 C   0  0  0  0  0  0  0  0  0  0  0  0
    7.4020   47.6020   46.0360 C   0  0  0  0  0  0  0  0  0  0  0  0
    8.0040   47.2730   47.2480 C   0  0  0  0  0  0  0  0  0  0  0  0
    9.7990   48.7010   54.2580 O   0  0  0  0  0  0  0  0  0  0  0  0
    9.9710   48.3010   55.1280 H   0  0  0  0  0  0  0  0  0  0  0  0
   11.1070   49.5400   51.8050 O   0  0  0  0  0  0  0  0  0  0  0  0
   12.0170   49.2000   51.9070 H   0  0  0  0  0  0  0  0  0  0  0  0
    9.7570   45.9660   54.6800 O   0  0  0  0  0  0  0  0  0  0  0  0
   10.3150   45.1650   54.6380 H   0  0  0  0  0  0  0  0  0  0  0  0
    9.4650   44.3630   52.1550 C   0  0  0  0  0  0  0  0  0  0  0  0
    8.1170   44.7860   52.4080 O   0  0  0  0  0  0  0  0  0  0  0  0
    7.6470   44.0850   52.8940 H   0  0  0  0  0  0  0  0  0  0  0  0
  1 12  1  6  0  0  0
  1 11  1  0  0  0  0
  2  1  1  0  0  0  0
  2  4  1  0  0  0  0
  3  2  1  0  0  0  0
  4  5  1  0  0  0  0
  5 11  1  6  0  0  0
  5 10  1  0  0  0  0
  6  5  1  6  0  0  0
  6  7  1  0  0  0  0
  7  8  1  0  0  0  0
  7 19  1  1  0  0  0
  8 23  1  1  0  0  0
  9 25  1  6  0  0  0
  9  8  1  0  0  0  0
 10  9  1  0  0  0  0
 13 12  2  0  0  0  0
 14 13  1  0  0  0  0
 15 14  2  0  0  0  0
 15 17  1  0  0  0  0
 16 15  1  0  0  0  0
 17 18  2  0  0  0  0
 18 12  1  0  0  0  0
 19 20  1  0  0  0  0
 21 22  1  0  0  0  0
 21  6  1  0  0  0  0
 24 23  1  0  0  0  0
 25 26  1  0  0  0  0
 26 27  1  0  0  0  0
M  END
>  <minimizedAffinity>
-7.75397635

$$$$

 OpenBabel12271915003D

 27 29  0  0  1  0  0  0  0  0999 V2000
    8.1020   48.6490   43.2280 C   0  0  1  0  0  0  0  0  0  0  0  0
    8.0960   49.9900   43.8380 N   0  0  0  0  0  0  0  0  0  0  0  0
    7.1510   50.4260   43.7380 H   0  0  0  0  0  0  0  0  0  0  0  0
    7.9940   49.6440   45.4060 O   0  0  0  0  0  0  0  0  0  0  0  0
    7.7360   48.2230   45.4410 C   0  0  2  0  0  0  0  0  0  0  0  0
    6.6790   48.0700   46.5100 C   0  0  1  0  0  0  0  0  0  0  0  0
    7.1960   47.2850   47.6880 C   0  0  2  0  0  0  0  0  0  0  0  0
    7.8800   46.0730   47.2080 C   0  0  1  0  0  0  0  0  0  0  0  0
    9.1380   46.5000   46.4910 C   0  0  2  0  0  0  0  0  0  0  0  0
    9.0620   47.6840   45.6670 O   0  0  0  0  0  0  0  0  0  0  0  0
    7.2890   47.7860   44.1070 C   0  0  0  0  0  0  0  0  0  0  0  0
    7.5540   48.8670   41.8560 C   0  0  0  0  0  0  0  0  0  0  0  0
    6.9690   50.1070   41.5370 C   0  0  0  0  0  0  0  0  0  0  0  0
    6.4380   50.3280   40.2960 C   0  0  0  0  0  0  0  0  0  0  0  0
    6.4840   49.3510   39.3150 C   0  0  0  0  0  0  0  0  0  0  0  0
    5.8860   49.6780   37.9860 C   0  0  0  0  0  0  0  0  0  0  0  0
    7.0440   48.1110   39.6180 C   0  0  0  0  0  0  0  0  0  0  0  0
    7.5810   47.8770   40.8820 C   0  0  0  0  0  0  0  0  0  0  0  0
    6.0290   46.8890   48.4640 O   0  0  0  0  0  0  0  0  0  0  0  0
    6.3960   46.4360   49.2430 H   0  0  0  0  0  0  0  0  0  0  0  0
    6.1830   49.3600   46.9460 O   0  0  0  0  0  0  0  0  0  0  0  0
    6.9430   49.8240   47.3480 H   0  0  0  0  0  0  0  0  0  0  0  0
    8.2940   45.3020   48.3420 O   0  0  0  0  0  0  0  0  0  0  0  0
    9.2690   45.3360   48.3890 H   0  0  0  0  0  0  0  0  0  0  0  0
    9.6800   45.3870   45.6760 C   0  0  0  0  0  0  0  0  0  0  0  0
    8.5940   44.4810   45.4310 O   0  0  0  0  0  0  0  0  0  0  0  0
    8.9070   43.5660   45.5510 H   0  0  0  0  0  0  0  0  0  0  0  0
  1 12  1  6  0  0  0
  1  2  1  0  0  0  0
  1 11  1  0  0  0  0
  2  4  1  0  0  0  0
  3  2  1  0  0  0  0
  4  5  1  0  0  0  0
  5 11  1  6  0  0  0
  5 10  1  0  0  0  0
  6  5  1  6  0  0  0
  6 21  1  0  0  0  0
  6  7  1  0  0  0  0
  7 19  1  1  0  0  0
  8  7  1  0  0  0  0
  8 23  1  1  0  0  0
  9 25  1  6  0  0  0
  9  8  1  0  0  0  0
 10  9  1  0  0  0  0
 13 12  1  0  0  0  0
 14 13  2  0  0  0  0
 15 17  2  0  0  0  0
 15 14  1  0  0  0  0
 16 15  1  0  0  0  0
 17 18  1  0  0  0  0
 18 12  2  0  0  0  0
 19 20  1  0  0  0  0
 21 22  1  0  0  0  0
 23 24  1  0  0  0  0
 26 27  1  0  0  0  0
 26 25  1  0  0  0  0
M  END
>  <minimizedAffinity>
-7.57778597

$$$$

 OpenBabel12271915003D

 27 29  0  0  1  0  0  0  0  0999 V2000
    7.9170   46.7850   48.1090 C   0  0  1  0  0  0  0  0  0  0  0  0
    6.7600   47.6670   48.3380 N   0  0  0  0  0  0  0  0  0  0  0  0
    7.0720   48.5620   48.7810 H   0  0  0  0  0  0  0  0  0  0  0  0
    6.4910   48.2550   46.8650 O   0  0  0  0  0  0  0  0  0  0  0  0
    7.6300   47.8160   46.0920 C   0  0  2  0  0  0  0  0  0  0  0  0
    7.9950   49.0240   45.2610 C   0  0  1  0  0  0  0  0  0  0  0  0
    7.7950   48.7620   43.7910 C   0  0  2  0  0  0  0  0  0  0  0  0
    8.3990   47.4670   43.4370 C   0  0  1  0  0  0  0  0  0  0  0  0
    7.5900   46.3780   44.1010 C   0  0  2  0  0  0  0  0  0  0  0  0
    7.1100   46.6320   45.4390 O   0  0  0  0  0  0  0  0  0  0  0  0
    8.6980   47.3950   47.0150 C   0  0  0  0  0  0  0  0  0  0  0  0
    8.6040   46.7280   49.4350 C   0  0  0  0  0  0  0  0  0  0  0  0
    9.9280   47.1930   49.5450 C   0  0  0  0  0  0  0  0  0  0  0  0
   10.5900   47.1320   50.7400 C   0  0  0  0  0  0  0  0  0  0  0  0
    9.9700   46.6380   51.8760 C   0  0  0  0  0  0  0  0  0  0  0  0
   10.7630   46.6130   53.1410 C   0  0  0  0  0  0  0  0  0  0  0  0
    8.6650   46.1580   51.7820 C   0  0  0  0  0  0  0  0  0  0  0  0
    7.9860   46.2100   50.5660 C   0  0  0  0  0  0  0  0  0  0  0  0
    8.5050   49.8190   43.0830 O   0  0  0  0  0  0  0  0  0  0  0  0
    8.3120   49.6560   42.1430 H   0  0  0  0  0  0  0  0  0  0  0  0
    7.2380   50.1900   45.6690 O   0  0  0  0  0  0  0  0  0  0  0  0
    6.3000   49.9840   45.4920 H   0  0  0  0  0  0  0  0  0  0  0  0
    8.2690   47.2720   42.0240 O   0  0  0  0  0  0  0  0  0  0  0  0
    7.6290   46.5480   41.8770 H   0  0  0  0  0  0  0  0  0  0  0  0
    8.3340   45.0960   44.0970 C   0  0  0  0  0  0  0  0  0  0  0  0
    9.6970   45.4050   43.7690 O   0  0  0  0  0  0  0  0  0  0  0  0
   10.0290   44.7490   43.1290 H   0  0  0  0  0  0  0  0  0  0  0  0
  1  2  1  0  0  0  0
  1 12  1  1  0  0  0
  2  3  1  0  0  0  0
  4  2  1  0  0  0  0
  5  4  1  0  0  0  0
  5 11  1  1  0  0  0
  6 21  1  0  0  0  0
  6  5  1  1  0  0  0
  7 19  1  6  0  0  0
  7  6  1  0  0  0  0
  8 23  1  6  0  0  0
  8  7  1  0  0  0  0
  8  9  1  0  0  0  0
  9 25  1  1  0  0  0
  9 10  1  0  0  0  0
 10  5  1  0  0  0  0
 11  1  1  0  0  0  0
 12 13  2  0  0  0  0
 12 18  1  0  0  0  0
 13 14  1  0  0  0  0
 14 15  2  0  0  0  0
 15 16  1  0  0  0  0
 17 15  1  0  0  0  0
 18 17  2  0  0  0  0
 20 19  1  0  0  0  0
 22 21  1  0  0  0  0
 24 23  1  0  0  0  0
 26 25  1  0  0  0  0
 27 26  1  0  0  0  0
M  END
>  <minimizedAffinity>
-7.44279003

$$$$
