
 OpenBabel12271914593D

 30 33  0  0  1  0  0  0  0  0999 V2000
    6.6340   47.2960   42.1420 C   0  0  1  0  0  0  0  0  0  0  0  0
    7.0190   46.6540   40.8960 N   0  0  0  0  0  0  0  0  0  0  0  0
    7.6270   47.2690   40.3520 H   0  0  0  0  0  0  0  0  0  0  0  0
    7.8580   45.5360   41.1650 O   0  0  0  0  0  0  0  0  0  0  0  0
    7.8970   45.3030   42.5490 C   0  0  2  0  0  0  0  0  0  0  0  0
    9.3100   44.9650   43.0130 C   0  0  1  0  0  0  0  0  0  0  0  0
    9.3220   43.5700   43.6380 C   0  0  2  0  0  0  0  0  0  0  0  0
    8.5860   42.6080   42.7070 C   0  0  1  0  0  0  0  0  0  0  0  0
    7.1270   43.0530   42.5370 C   0  0  2  0  0  0  0  0  0  0  0  0
    6.9070   44.3810   42.9750 O   0  0  0  0  0  0  0  0  0  0  0  0
    7.4820   46.6070   43.1810 C   0  0  0  0  0  0  0  0  0  0  0  0
    6.8260   48.7970   42.1050 C   0  0  0  0  0  0  0  0  0  0  0  0
    6.4930   49.4980   40.9450 C   0  0  0  0  0  0  0  0  0  0  0  0
    6.6160   50.8760   40.9040 C   0  0  0  0  0  0  0  0  0  0  0  0
    7.0680   51.5960   42.0050 C   0  0  0  0  0  0  0  0  0  0  0  0
    7.1870   52.9820   41.9800 C   0  0  0  0  0  0  0  0  0  0  0  0
    7.6370   53.6750   43.0980 C   0  0  0  0  0  0  0  0  0  0  0  0
    7.9800   52.9990   44.2580 C   0  0  0  0  0  0  0  0  0  0  0  0
    7.8610   51.6190   44.2890 C   0  0  0  0  0  0  0  0  0  0  0  0
    7.4080   50.9080   43.1740 C   0  0  0  0  0  0  0  0  0  0  0  0
    7.2710   49.5290   43.1990 C   0  0  0  0  0  0  0  0  0  0  0  0
    8.7210   43.5890   44.9410 O   0  0  0  0  0  0  0  0  0  0  0  0
    8.2460   44.4350   45.0780 H   0  0  0  0  0  0  0  0  0  0  0  0
   10.2750   45.0290   41.9270 O   0  0  0  0  0  0  0  0  0  0  0  0
   11.1500   45.1600   42.3220 H   0  0  0  0  0  0  0  0  0  0  0  0
    9.2070   42.6370   41.4180 O   0  0  0  0  0  0  0  0  0  0  0  0
   10.1740   42.5950   41.5080 H   0  0  0  0  0  0  0  0  0  0  0  0
    6.1910   42.1740   43.3730 C   0  0  0  0  0  0  0  0  0  0  0  0
    6.8220   41.6910   44.5660 O   0  0  0  0  0  0  0  0  0  0  0  0
    6.6540   42.3280   45.2910 H   0  0  0  0  0  0  0  0  0  0  0  0
  1 12  1  6  0  0  0
  1 11  1  0  0  0  0
  2  4  1  0  0  0  0
  2  1  1  0  0  0  0
  3  2  1  0  0  0  0
  4  5  1  0  0  0  0
  5 10  1  0  0  0  0
  5 11  1  1  0  0  0
  6  5  1  6  0  0  0
  6  7  1  0  0  0  0
  7 22  1  1  0  0  0
  8 26  1  6  0  0  0
  8  7  1  0  0  0  0
  9  8  1  0  0  0  0
  9 10  1  0  0  0  0
  9 28  1  1  0  0  0
 12 21  2  0  0  0  0
 13 12  1  0  0  0  0
 14 13  2  0  0  0  0
 14 15  1  0  0  0  0
 15 20  1  0  0  0  0
 16 15  2  0  0  0  0
 16 17  1  0  0  0  0
 17 18  2  0  0  0  0
 18 19  1  0  0  0  0
 20 21  1  0  0  0  0
 20 19  2  0  0  0  0
 22 23  1  0  0  0  0
 24 25  1  0  0  0  0
 24  6  1  0  0  0  0
 26 27  1  0  0  0  0
 28 29  1  0  0  0  0
 29 30  1  0  0  0  0
M  END
>  <minimizedAffinity>
-10.5016308

$$$$

 OpenBabel12271914593D

 30 33  0  0  1  0  0  0  0  0999 V2000
    8.3230   50.1140   44.5830 C   0  0  1  0  0  0  0  0  0  0  0  0
    7.3050   50.0490   45.6190 N   0  0  0  0  0  0  0  0  0  0  0  0
    6.3780   50.1940   45.2150 H   0  0  0  0  0  0  0  0  0  0  0  0
    7.2230   48.7250   46.1350 O   0  0  0  0  0  0  0  0  0  0  0  0
    8.2710   47.9520   45.6110 C   0  0  2  0  0  0  0  0  0  0  0  0
    7.7900   46.5570   45.2280 C   0  0  1  0  0  0  0  0  0  0  0  0
    8.5590   45.5110   46.0350 C   0  0  2  0  0  0  0  0  0  0  0  0
    8.5600   45.9290   47.5040 C   0  0  1  0  0  0  0  0  0  0  0  0
    9.2620   47.2830   47.6660 C   0  0  2  0  0  0  0  0  0  0  0  0
    9.4250   47.9650   46.4360 O   0  0  0  0  0  0  0  0  0  0  0  0
    8.7050   48.6720   44.3600 C   0  0  0  0  0  0  0  0  0  0  0  0
    7.8330   50.8090   43.3300 C   0  0  0  0  0  0  0  0  0  0  0  0
    7.9460   52.1970   43.2340 C   0  0  0  0  0  0  0  0  0  0  0  0
    7.5470   52.8490   42.0800 C   0  0  0  0  0  0  0  0  0  0  0  0
    7.0310   52.1490   40.9930 C   0  0  0  0  0  0  0  0  0  0  0  0
    6.6370   52.7930   39.8240 C   0  0  0  0  0  0  0  0  0  0  0  0
    6.1280   52.0660   38.7530 C   0  0  0  0  0  0  0  0  0  0  0  0
    6.0020   50.6880   38.8300 C   0  0  0  0  0  0  0  0  0  0  0  0
    6.3950   50.0430   39.9910 C   0  0  0  0  0  0  0  0  0  0  0  0
    6.9100   50.7590   41.0760 C   0  0  0  0  0  0  0  0  0  0  0  0
    7.3210   50.1220   42.2360 C   0  0  0  0  0  0  0  0  0  0  0  0
    9.8970   45.3660   45.5380 O   0  0  0  0  0  0  0  0  0  0  0  0
   10.1090   46.1020   44.9270 H   0  0  0  0  0  0  0  0  0  0  0  0
    6.3600   46.3910   45.4380 O   0  0  0  0  0  0  0  0  0  0  0  0
    6.0650   45.6630   44.8700 H   0  0  0  0  0  0  0  0  0  0  0  0
    7.2080   46.0790   47.9490 O   0  0  0  0  0  0  0  0  0  0  0  0
    6.6680   45.3290   47.6480 H   0  0  0  0  0  0  0  0  0  0  0  0
   10.6740   47.0980   48.2330 C   0  0  0  0  0  0  0  0  0  0  0  0
   11.6460   46.8710   47.2040 O   0  0  0  0  0  0  0  0  0  0  0  0
   12.0160   47.7340   46.9230 H   0  0  0  0  0  0  0  0  0  0  0  0
  1 12  1  6  0  0  0
  1  2  1  0  0  0  0
  2  4  1  0  0  0  0
  3  2  1  0  0  0  0
  5 11  1  6  0  0  0
  5  4  1  0  0  0  0
  5 10  1  0  0  0  0
  6 24  1  0  0  0  0
  6  5  1  1  0  0  0
  6  7  1  0  0  0  0
  7 22  1  6  0  0  0
  7  8  1  0  0  0  0
  8  9  1  0  0  0  0
  8 26  1  6  0  0  0
  9 28  1  6  0  0  0
 10  9  1  0  0  0  0
 11  1  1  0  0  0  0
 13 12  1  0  0  0  0
 14 13  2  0  0  0  0
 15 20  1  0  0  0  0
 15 14  1  0  0  0  0
 16 15  2  0  0  0  0
 17 18  2  0  0  0  0
 17 16  1  0  0  0  0
 18 19  1  0  0  0  0
 19 20  2  0  0  0  0
 20 21  1  0  0  0  0
 21 12  2  0  0  0  0
 23 22  1  0  0  0  0
 25 24  1  0  0  0  0
 27 26  1  0  0  0  0
 29 28  1  0  0  0  0
 30 29  1  0  0  0  0
M  END
>  <minimizedAffinity>
-10.3989639

$$$$

 OpenBabel12271914593D

 30 33  0  0  1  0  0  0  0  0999 V2000
    7.9100   48.6560   45.4180 C   0  0  1  0  0  0  0  0  0  0  0  0
    6.9140   47.8730   46.1310 N   0  0  0  0  0  0  0  0  0  0  0  0
    6.2840   47.4140   45.4720 H   0  0  0  0  0  0  0  0  0  0  0  0
    7.5400   46.7760   46.7880 O   0  0  0  0  0  0  0  0  0  0  0  0
    8.9350   46.9030   46.6870 C   0  0  2  0  0  0  0  0  0  0  0  0
    9.5920   45.5610   46.3870 C   0  0  1  0  0  0  0  0  0  0  0  0
   10.5610   45.2030   47.5140 C   0  0  2  0  0  0  0  0  0  0  0  0
    9.8550   45.4120   48.8530 C   0  0  1  0  0  0  0  0  0  0  0  0
    9.4470   46.8830   49.0090 C   0  0  2  0  0  0  0  0  0  0  0  0
    9.5000   47.5970   47.7870 O   0  0  0  0  0  0  0  0  0  0  0  0
    9.1630   47.8230   45.5150 C   0  0  0  0  0  0  0  0  0  0  0  0
    7.4960   48.9610   43.9940 C   0  0  0  0  0  0  0  0  0  0  0  0
    6.9730   47.9370   43.2030 C   0  0  0  0  0  0  0  0  0  0  0  0
    6.5450   48.2020   41.9130 C   0  0  0  0  0  0  0  0  0  0  0  0
    6.6220   49.4830   41.3740 C   0  0  0  0  0  0  0  0  0  0  0  0
    6.1870   49.7640   40.0820 C   0  0  0  0  0  0  0  0  0  0  0  0
    6.2730   51.0540   39.5710 C   0  0  0  0  0  0  0  0  0  0  0  0
    6.7960   52.0840   40.3360 C   0  0  0  0  0  0  0  0  0  0  0  0
    7.2280   51.8090   41.6230 C   0  0  0  0  0  0  0  0  0  0  0  0
    7.1470   50.5180   42.1520 C   0  0  0  0  0  0  0  0  0  0  0  0
    7.5630   50.2360   43.4440 C   0  0  0  0  0  0  0  0  0  0  0  0
   11.7550   45.9930   47.4310 O   0  0  0  0  0  0  0  0  0  0  0  0
   11.6230   46.7340   46.8040 H   0  0  0  0  0  0  0  0  0  0  0  0
    8.6160   44.4960   46.2170 O   0  0  0  0  0  0  0  0  0  0  0  0
    9.0380   43.7940   45.6980 H   0  0  0  0  0  0  0  0  0  0  0  0
    8.6630   44.6210   48.8810 O   0  0  0  0  0  0  0  0  0  0  0  0
    8.8440   43.7240   48.5530 H   0  0  0  0  0  0  0  0  0  0  0  0
   10.4000   47.6120   49.9630 C   0  0  0  0  0  0  0  0  0  0  0  0
   11.5630   48.1120   49.2900 O   0  0  0  0  0  0  0  0  0  0  0  0
   11.3820   49.0260   48.9850 H   0  0  0  0  0  0  0  0  0  0  0  0
  1 12  1  6  0  0  0
  1 11  1  0  0  0  0
  1  2  1  0  0  0  0
  2  4  1  0  0  0  0
  3  2  1  0  0  0  0
  5 11  1  6  0  0  0
  5  4  1  0  0  0  0
  5 10  1  0  0  0  0
  6  5  1  1  0  0  0
  6  7  1  0  0  0  0
  7 22  1  1  0  0  0
  7  8  1  0  0  0  0
  8 26  1  6  0  0  0
  8  9  1  0  0  0  0
  9 28  1  1  0  0  0
 10  9  1  0  0  0  0
 13 12  2  0  0  0  0
 14 13  1  0  0  0  0
 15 14  2  0  0  0  0
 15 20  1  0  0  0  0
 16 15  1  0  0  0  0
 17 16  2  0  0  0  0
 17 18  1  0  0  0  0
 18 19  2  0  0  0  0
 19 20  1  0  0  0  0
 20 21  2  0  0  0  0
 21 12  1  0  0  0  0
 23 22  1  0  0  0  0
 24  6  1  0  0  0  0
 25 24  1  0  0  0  0
 27 26  1  0  0  0  0
 29 28  1  0  0  0  0
 30 29  1  0  0  0  0
M  END
>  <minimizedAffinity>
-9.94437599

$$$$

 OpenBabel12271914593D

 30 33  0  0  1  0  0  0  0  0999 V2000
    7.9110   47.1330   42.2480 C   0  0  1  0  0  0  0  0  0  0  0  0
    9.2830   46.6530   42.2190 N   0  0  0  0  0  0  0  0  0  0  0  0
    9.8370   47.1160   42.9420 H   0  0  0  0  0  0  0  0  0  0  0  0
    9.3260   45.2860   42.6120 O   0  0  0  0  0  0  0  0  0  0  0  0
    8.0180   44.7900   42.7270 C   0  0  2  0  0  0  0  0  0  0  0  0
    7.8680   43.9050   43.9600 C   0  0  1  0  0  0  0  0  0  0  0  0
    7.4540   42.4970   43.5310 C   0  0  2  0  0  0  0  0  0  0  0  0
    8.3600   42.0460   42.3870 C   0  0  1  0  0  0  0  0  0  0  0  0
    8.2020   42.9870   41.1860 C   0  0  2  0  0  0  0  0  0  0  0  0
    7.5510   44.1990   41.5250 O   0  0  0  0  0  0  0  0  0  0  0  0
    7.1480   46.0080   42.9000 C   0  0  0  0  0  0  0  0  0  0  0  0
    7.7740   48.4550   42.9740 C   0  0  0  0  0  0  0  0  0  0  0  0
    7.9990   48.5020   44.3510 C   0  0  0  0  0  0  0  0  0  0  0  0
    7.9240   49.7070   45.0280 C   0  0  0  0  0  0  0  0  0  0  0  0
    7.6300   50.8940   44.3640 C   0  0  0  0  0  0  0  0  0  0  0  0
    7.5630   52.1130   45.0320 C   0  0  0  0  0  0  0  0  0  0  0  0
    7.2700   53.2830   44.3410 C   0  0  0  0  0  0  0  0  0  0  0  0
    7.0380   53.2590   42.9750 C   0  0  0  0  0  0  0  0  0  0  0  0
    7.1060   52.0480   42.3060 C   0  0  0  0  0  0  0  0  0  0  0  0
    7.4000   50.8620   42.9860 C   0  0  0  0  0  0  0  0  0  0  0  0
    7.4860   49.6480   42.3230 C   0  0  0  0  0  0  0  0  0  0  0  0
    6.0750   42.4680   43.1390 O   0  0  0  0  0  0  0  0  0  0  0  0
    5.7390   43.3820   43.0290 H   0  0  0  0  0  0  0  0  0  0  0  0
    9.0910   43.8430   44.7450 O   0  0  0  0  0  0  0  0  0  0  0  0
    8.8460   43.5880   45.6460 H   0  0  0  0  0  0  0  0  0  0  0  0
    9.7240   42.1090   42.8180 O   0  0  0  0  0  0  0  0  0  0  0  0
    9.8170   41.7220   43.7050 H   0  0  0  0  0  0  0  0  0  0  0  0
    7.3400   42.3380   40.0980 C   0  0  0  0  0  0  0  0  0  0  0  0
    5.9790   42.7880   40.1440 O   0  0  0  0  0  0  0  0  0  0  0  0
    5.8870   43.5720   39.5630 H   0  0  0  0  0  0  0  0  0  0  0  0
  1 11  1  0  0  0  0
  1 12  1  1  0  0  0
  2  1  1  0  0  0  0
  2  4  1  0  0  0  0
  2  3  1  0  0  0  0
  4  5  1  0  0  0  0
  5 11  1  1  0  0  0
  6  5  1  6  0  0  0
  6 24  1  0  0  0  0
  7 22  1  6  0  0  0
  7  6  1  0  0  0  0
  8 26  1  1  0  0  0
  8  7  1  0  0  0  0
  9 28  1  6  0  0  0
  9 10  1  0  0  0  0
  9  8  1  0  0  0  0
 10  5  1  0  0  0  0
 12 13  1  0  0  0  0
 13 14  2  0  0  0  0
 15 14  1  0  0  0  0
 15 16  1  0  0  0  0
 17 16  2  0  0  0  0
 18 17  1  0  0  0  0
 19 18  2  0  0  0  0
 19 20  1  0  0  0  0
 20 15  2  0  0  0  0
 21 12  2  0  0  0  0
 21 20  1  0  0  0  0
 23 22  1  0  0  0  0
 24 25  1  0  0  0  0
 26 27  1  0  0  0  0
 28 29  1  0  0  0  0
 30 29  1  0  0  0  0
M  END
>  <minimizedAffinity>
-9.81631565

$$$$

 OpenBabel12271914593D

 30 33  0  0  1  0  0  0  0  0999 V2000
    7.1070   48.0840   43.4880 C   0  0  1  0  0  0  0  0  0  0  0  0
    6.1110   47.6670   42.5160 N   0  0  0  0  0  0  0  0  0  0  0  0
    5.9530   48.4060   41.8300 H   0  0  0  0  0  0  0  0  0  0  0  0
    6.6230   46.6020   41.7230 O   0  0  0  0  0  0  0  0  0  0  0  0
    7.8530   46.1750   42.2500 C   0  0  2  0  0  0  0  0  0  0  0  0
    8.8640   45.9020   41.1420 C   0  0  1  0  0  0  0  0  0  0  0  0
    9.3010   44.4380   41.1980 C   0  0  2  0  0  0  0  0  0  0  0  0
    8.0570   43.5590   41.3150 C   0  0  1  0  0  0  0  0  0  0  0  0
    7.2960   43.8900   42.6050 C   0  0  2  0  0  0  0  0  0  0  0  0
    7.7090   45.1160   43.1820 O   0  0  0  0  0  0  0  0  0  0  0  0
    8.3490   47.3310   43.0800 C   0  0  0  0  0  0  0  0  0  0  0  0
    7.2960   49.5860   43.5190 C   0  0  0  0  0  0  0  0  0  0  0  0
    7.5950   50.2100   44.7310 C   0  0  0  0  0  0  0  0  0  0  0  0
    7.8170   51.5750   44.7750 C   0  0  0  0  0  0  0  0  0  0  0  0
    7.7510   52.3570   43.6260 C   0  0  0  0  0  0  0  0  0  0  0  0
    7.9820   53.7300   43.6560 C   0  0  0  0  0  0  0  0  0  0  0  0
    7.9130   54.4850   42.4910 C   0  0  0  0  0  0  0  0  0  0  0  0
    7.6110   53.8870   41.2770 C   0  0  0  0  0  0  0  0  0  0  0  0
    7.3820   52.5210   41.2430 C   0  0  0  0  0  0  0  0  0  0  0  0
    7.4490   51.7470   42.4050 C   0  0  0  0  0  0  0  0  0  0  0  0
    7.2380   50.3780   42.3790 C   0  0  0  0  0  0  0  0  0  0  0  0
   10.1950   44.2140   42.2970 O   0  0  0  0  0  0  0  0  0  0  0  0
   10.1820   44.9850   42.9020 H   0  0  0  0  0  0  0  0  0  0  0  0
    8.3320   46.2090   39.8240 O   0  0  0  0  0  0  0  0  0  0  0  0
    9.0860   46.3600   39.2330 H   0  0  0  0  0  0  0  0  0  0  0  0
    7.1880   43.8300   40.2100 O   0  0  0  0  0  0  0  0  0  0  0  0
    7.6940   43.8630   39.3810 H   0  0  0  0  0  0  0  0  0  0  0  0
    7.5450   42.8190   43.6720 C   0  0  0  0  0  0  0  0  0  0  0  0
    6.3310   42.1850   44.0970 O   0  0  0  0  0  0  0  0  0  0  0  0
    6.1730   41.3980   43.5340 H   0  0  0  0  0  0  0  0  0  0  0  0
  1 12  1  6  0  0  0
  2  1  1  0  0  0  0
  3  2  1  0  0  0  0
  4  5  1  0  0  0  0
  4  2  1  0  0  0  0
  5 11  1  1  0  0  0
  5 10  1  0  0  0  0
  6  7  1  0  0  0  0
  6  5  1  1  0  0  0
  7  8  1  0  0  0  0
  7 22  1  1  0  0  0
  8 26  1  6  0  0  0
  8  9  1  0  0  0  0
  9 10  1  0  0  0  0
  9 28  1  1  0  0  0
 11  1  1  0  0  0  0
 12 13  2  0  0  0  0
 13 14  1  0  0  0  0
 15 16  1  0  0  0  0
 15 14  2  0  0  0  0
 17 16  2  0  0  0  0
 18 17  1  0  0  0  0
 19 18  2  0  0  0  0
 19 20  1  0  0  0  0
 20 15  1  0  0  0  0
 21 20  2  0  0  0  0
 21 12  1  0  0  0  0
 22 23  1  0  0  0  0
 24  6  1  0  0  0  0
 25 24  1  0  0  0  0
 27 26  1  0  0  0  0
 28 29  1  0  0  0  0
 30 29  1  0  0  0  0
M  END
>  <minimizedAffinity>
-9.60649014

$$$$

 OpenBabel12271914593D

 30 33  0  0  1  0  0  0  0  0999 V2000
    9.1530   47.5070   44.9900 C   0  0  1  0  0  0  0  0  0  0  0  0
   10.4170   47.8260   45.6340 N   0  0  0  0  0  0  0  0  0  0  0  0
   10.5210   48.8380   45.7280 H   0  0  0  0  0  0  0  0  0  0  0  0
   10.3980   47.3810   46.9850 O   0  0  0  0  0  0  0  0  0  0  0  0
    9.2410   46.6180   47.2110 C   0  0  2  0  0  0  0  0  0  0  0  0
    8.6160   46.9510   48.5610 C   0  0  1  0  0  0  0  0  0  0  0  0
    8.5840   45.6960   49.4340 C   0  0  2  0  0  0  0  0  0  0  0  0
    9.9580   45.0310   49.3860 C   0  0  1  0  0  0  0  0  0  0  0  0
   10.2930   44.6170   47.9480 C   0  0  2  0  0  0  0  0  0  0  0  0
    9.4500   45.2330   46.9910 O   0  0  0  0  0  0  0  0  0  0  0  0
    8.2820   47.0240   46.1230 C   0  0  0  0  0  0  0  0  0  0  0  0
    8.5690   48.6860   44.2400 C   0  0  0  0  0  0  0  0  0  0  0  0
    8.0020   48.4790   42.9820 C   0  0  0  0  0  0  0  0  0  0  0  0
    7.4210   49.5330   42.2980 C   0  0  0  0  0  0  0  0  0  0  0  0
    7.3830   50.8140   42.8390 C   0  0  0  0  0  0  0  0  0  0  0  0
    6.7920   51.8800   42.1650 C   0  0  0  0  0  0  0  0  0  0  0  0
    6.7660   53.1490   42.7330 C   0  0  0  0  0  0  0  0  0  0  0  0
    7.3300   53.3780   43.9780 C   0  0  0  0  0  0  0  0  0  0  0  0
    7.9160   52.3200   44.6530 C   0  0  0  0  0  0  0  0  0  0  0  0
    7.9490   51.0380   44.0970 C   0  0  0  0  0  0  0  0  0  0  0  0
    8.5200   49.9700   44.7700 C   0  0  0  0  0  0  0  0  0  0  0  0
    7.5590   44.7950   48.9940 O   0  0  0  0  0  0  0  0  0  0  0  0
    7.2290   45.0670   48.1120 H   0  0  0  0  0  0  0  0  0  0  0  0
    9.3280   48.0150   49.2510 O   0  0  0  0  0  0  0  0  0  0  0  0
    8.7140   48.4130   49.8870 H   0  0  0  0  0  0  0  0  0  0  0  0
   10.9490   45.9720   49.8140 O   0  0  0  0  0  0  0  0  0  0  0  0
   10.6510   46.4350   50.6150 H   0  0  0  0  0  0  0  0  0  0  0  0
   10.1070   43.1070   47.7600 C   0  0  0  0  0  0  0  0  0  0  0  0
    8.8180   42.7820   47.2230 O   0  0  0  0  0  0  0  0  0  0  0  0
    8.8810   42.7610   46.2450 H   0  0  0  0  0  0  0  0  0  0  0  0
  1 12  1  1  0  0  0
  1  2  1  0  0  0  0
  1 11  1  0  0  0  0
  2  3  1  0  0  0  0
  2  4  1  0  0  0  0
  4  5  1  0  0  0  0
  5 11  1  6  0  0  0
  6  5  1  6  0  0  0
  6 24  1  0  0  0  0
  6  7  1  0  0  0  0
  7 22  1  6  0  0  0
  8  7  1  0  0  0  0
  8 26  1  6  0  0  0
  9 28  1  1  0  0  0
  9  8  1  0  0  0  0
 10  5  1  0  0  0  0
 10  9  1  0  0  0  0
 12 21  1  0  0  0  0
 13 12  2  0  0  0  0
 14 15  2  0  0  0  0
 14 13  1  0  0  0  0
 15 20  1  0  0  0  0
 16 17  2  0  0  0  0
 16 15  1  0  0  0  0
 17 18  1  0  0  0  0
 18 19  2  0  0  0  0
 20 19  1  0  0  0  0
 20 21  2  0  0  0  0
 23 22  1  0  0  0  0
 24 25  1  0  0  0  0
 26 27  1  0  0  0  0
 29 28  1  0  0  0  0
 30 29  1  0  0  0  0
M  END
>  <minimizedAffinity>
-9.2195425

$$$$

 OpenBabel12271914593D

 30 33  0  0  1  0  0  0  0  0999 V2000
    7.1730   47.1810   45.2390 C   0  0  1  0  0  0  0  0  0  0  0  0
    7.8740   45.9200   45.0560 N   0  0  0  0  0  0  0  0  0  0  0  0
    8.4020   45.9310   44.1820 H   0  0  0  0  0  0  0  0  0  0  0  0
    8.8920   45.7830   46.0400 O   0  0  0  0  0  0  0  0  0  0  0  0
    8.7760   46.8190   46.9810 C   0  0  2  0  0  0  0  0  0  0  0  0
   10.1430   47.3780   47.3590 C   0  0  1  0  0  0  0  0  0  0  0  0
   10.3750   47.1930   48.8590 C   0  0  2  0  0  0  0  0  0  0  0  0
   10.0190   45.7550   49.2360 C   0  0  1  0  0  0  0  0  0  0  0  0
    8.5410   45.4810   48.9330 C   0  0  2  0  0  0  0  0  0  0  0  0
    7.9650   46.4620   48.0890 O   0  0  0  0  0  0  0  0  0  0  0  0
    7.9900   47.9000   46.2840 C   0  0  0  0  0  0  0  0  0  0  0  0
    7.0270   47.9570   43.9480 C   0  0  0  0  0  0  0  0  0  0  0  0
    6.5120   47.3140   42.8210 C   0  0  0  0  0  0  0  0  0  0  0  0
    6.3270   48.0150   41.6430 C   0  0  0  0  0  0  0  0  0  0  0  0
    6.6410   49.3670   41.5470 C   0  0  0  0  0  0  0  0  0  0  0  0
    6.4500   50.0860   40.3700 C   0  0  0  0  0  0  0  0  0  0  0  0
    6.7700   51.4370   40.3060 C   0  0  0  0  0  0  0  0  0  0  0  0
    7.2890   52.0950   41.4100 C   0  0  0  0  0  0  0  0  0  0  0  0
    7.4790   51.3840   42.5840 C   0  0  0  0  0  0  0  0  0  0  0  0
    7.1610   50.0250   42.6660 C   0  0  0  0  0  0  0  0  0  0  0  0
    7.3330   49.3090   43.8400 C   0  0  0  0  0  0  0  0  0  0  0  0
    9.5980   48.1320   49.6150 O   0  0  0  0  0  0  0  0  0  0  0  0
    8.9310   48.5560   49.0370 H   0  0  0  0  0  0  0  0  0  0  0  0
   11.2210   46.7500   46.6110 O   0  0  0  0  0  0  0  0  0  0  0  0
   11.9750   47.3580   46.6190 H   0  0  0  0  0  0  0  0  0  0  0  0
   10.8030   44.8570   48.4440 O   0  0  0  0  0  0  0  0  0  0  0  0
   11.7310   45.1470   48.4220 H   0  0  0  0  0  0  0  0  0  0  0  0
    7.7110   45.4980   50.2220 C   0  0  0  0  0  0  0  0  0  0  0  0
    6.9440   46.7020   50.3570 O   0  0  0  0  0  0  0  0  0  0  0  0
    6.0640   46.5620   49.9500 H   0  0  0  0  0  0  0  0  0  0  0  0
  1 12  1  6  0  0  0
  1 11  1  0  0  0  0
  2  1  1  0  0  0  0
  2  4  1  0  0  0  0
  3  2  1  0  0  0  0
  4  5  1  0  0  0  0
  5 11  1  6  0  0  0
  5 10  1  0  0  0  0
  6  5  1  6  0  0  0
  6  7  1  0  0  0  0
  7  8  1  0  0  0  0
  7 22  1  1  0  0  0
  8 26  1  6  0  0  0
  9  8  1  0  0  0  0
  9 28  1  1  0  0  0
 10  9  1  0  0  0  0
 13 12  2  0  0  0  0
 14 13  1  0  0  0  0
 15 14  2  0  0  0  0
 15 20  1  0  0  0  0
 16 15  1  0  0  0  0
 17 16  2  0  0  0  0
 17 18  1  0  0  0  0
 18 19  2  0  0  0  0
 19 20  1  0  0  0  0
 20 21  2  0  0  0  0
 21 12  1  0  0  0  0
 23 22  1  0  0  0  0
 24 25  1  0  0  0  0
 24  6  1  0  0  0  0
 27 26  1  0  0  0  0
 28 29  1  0  0  0  0
 30 29  1  0  0  0  0
M  END
>  <minimizedAffinity>
-9.09565735

$$$$

 OpenBabel12271914593D

 30 33  0  0  1  0  0  0  0  0999 V2000
    8.2080   46.1130   47.1590 C   0  0  1  0  0  0  0  0  0  0  0  0
    9.5420   45.5380   47.2120 N   0  0  0  0  0  0  0  0  0  0  0  0
   10.1630   46.0190   46.5590 H   0  0  0  0  0  0  0  0  0  0  0  0
   10.1370   45.8090   48.4760 O   0  0  0  0  0  0  0  0  0  0  0  0
    9.1830   46.3860   49.3290 C   0  0  2  0  0  0  0  0  0  0  0  0
    9.7830   47.5320   50.1350 C   0  0  1  0  0  0  0  0  0  0  0  0
    9.6780   47.2170   51.6270 C   0  0  2  0  0  0  0  0  0  0  0  0
   10.1740   45.7920   51.8640 C   0  0  1  0  0  0  0  0  0  0  0  0
    9.2990   44.7950   51.0930 C   0  0  2  0  0  0  0  0  0  0  0  0
    8.4950   45.4210   50.1090 O   0  0  0  0  0  0  0  0  0  0  0  0
    8.1220   46.9430   48.4150 C   0  0  0  0  0  0  0  0  0  0  0  0
    7.9690   46.9080   45.8920 C   0  0  0  0  0  0  0  0  0  0  0  0
    7.5770   46.2380   44.7330 C   0  0  0  0  0  0  0  0  0  0  0  0
    7.3070   46.9480   43.5760 C   0  0  0  0  0  0  0  0  0  0  0  0
    7.4160   48.3350   43.5350 C   0  0  0  0  0  0  0  0  0  0  0  0
    7.1380   49.0610   42.3810 C   0  0  0  0  0  0  0  0  0  0  0  0
    7.2510   50.4460   42.3710 C   0  0  0  0  0  0  0  0  0  0  0  0
    7.6450   51.1320   43.5100 C   0  0  0  0  0  0  0  0  0  0  0  0
    7.9200   50.4130   44.6620 C   0  0  0  0  0  0  0  0  0  0  0  0
    7.8100   49.0200   44.6880 C   0  0  0  0  0  0  0  0  0  0  0  0
    8.0680   48.2930   45.8390 C   0  0  0  0  0  0  0  0  0  0  0  0
    8.3300   47.3780   52.0900 O   0  0  0  0  0  0  0  0  0  0  0  0
    7.7210   47.4550   51.3260 H   0  0  0  0  0  0  0  0  0  0  0  0
   11.1700   47.7880   49.7800 O   0  0  0  0  0  0  0  0  0  0  0  0
   11.3730   48.7000   50.0370 H   0  0  0  0  0  0  0  0  0  0  0  0
   11.5120   45.6740   51.3710 O   0  0  0  0  0  0  0  0  0  0  0  0
   12.0450   46.4360   51.6540 H   0  0  0  0  0  0  0  0  0  0  0  0
    8.3250   44.0830   52.0390 C   0  0  0  0  0  0  0  0  0  0  0  0
    7.0630   44.7570   52.1260 O   0  0  0  0  0  0  0  0  0  0  0  0
    6.4620   44.3890   51.4440 H   0  0  0  0  0  0  0  0  0  0  0  0
  1 12  1  6  0  0  0
  1  2  1  0  0  0  0
  1 11  1  0  0  0  0
  2  4  1  0  0  0  0
  3  2  1  0  0  0  0
  4  5  1  0  0  0  0
  5 11  1  6  0  0  0
  5 10  1  0  0  0  0
  6  5  1  6  0  0  0
  6  7  1  0  0  0  0
  7  8  1  0  0  0  0
  7 22  1  6  0  0  0
  8 26  1  6  0  0  0
  9  8  1  0  0  0  0
  9 28  1  1  0  0  0
 10  9  1  0  0  0  0
 13 12  2  0  0  0  0
 14 13  1  0  0  0  0
 15 14  2  0  0  0  0
 15 20  1  0  0  0  0
 16 15  1  0  0  0  0
 17 16  2  0  0  0  0
 17 18  1  0  0  0  0
 18 19  2  0  0  0  0
 19 20  1  0  0  0  0
 20 21  2  0  0  0  0
 21 12  1  0  0  0  0
 23 22  1  0  0  0  0
 24 25  1  0  0  0  0
 24  6  1  0  0  0  0
 26 27  1  0  0  0  0
 28 29  1  0  0  0  0
 30 29  1  0  0  0  0
M  END
>  <minimizedAffinity>
-8.93622589

$$$$

 OpenBabel12271914593D

 30 33  0  0  1  0  0  0  0  0999 V2000
    9.1080   47.2820   44.8600 C   0  0  1  0  0  0  0  0  0  0  0  0
   10.3550   47.6750   45.4940 N   0  0  0  0  0  0  0  0  0  0  0  0
   10.4250   48.6930   45.5410 H   0  0  0  0  0  0  0  0  0  0  0  0
   10.3430   47.2940   46.8650 O   0  0  0  0  0  0  0  0  0  0  0  0
    9.2120   46.5030   47.1210 C   0  0  2  0  0  0  0  0  0  0  0  0
    8.5660   46.8770   48.4510 C   0  0  1  0  0  0  0  0  0  0  0  0
    8.5710   45.6640   49.3810 C   0  0  2  0  0  0  0  0  0  0  0  0
    9.9680   45.0450   49.3720 C   0  0  1  0  0  0  0  0  0  0  0  0
   10.3270   44.5750   47.9570 C   0  0  2  0  0  0  0  0  0  0  0  0
    9.4690   45.1160   46.9680 O   0  0  0  0  0  0  0  0  0  0  0  0
    8.2470   46.8230   46.0090 C   0  0  0  0  0  0  0  0  0  0  0  0
    8.4890   48.4030   44.0520 C   0  0  0  0  0  0  0  0  0  0  0  0
    8.6150   49.7170   44.5040 C   0  0  0  0  0  0  0  0  0  0  0  0
    8.0980   50.7620   43.7580 C   0  0  0  0  0  0  0  0  0  0  0  0
    7.4450   50.5370   42.5500 C   0  0  0  0  0  0  0  0  0  0  0  0
    6.9300   51.5810   41.7870 C   0  0  0  0  0  0  0  0  0  0  0  0
    6.2860   51.3250   40.5810 C   0  0  0  0  0  0  0  0  0  0  0  0
    6.1430   50.0270   40.1170 C   0  0  0  0  0  0  0  0  0  0  0  0
    6.6570   48.9860   40.8730 C   0  0  0  0  0  0  0  0  0  0  0  0
    7.3080   49.2260   42.0860 C   0  0  0  0  0  0  0  0  0  0  0  0
    7.8390   48.1930   42.8420 C   0  0  0  0  0  0  0  0  0  0  0  0
    7.5810   44.7080   48.9800 O   0  0  0  0  0  0  0  0  0  0  0  0
    7.2480   44.9260   48.0840 H   0  0  0  0  0  0  0  0  0  0  0  0
    9.2360   47.9960   49.0930 O   0  0  0  0  0  0  0  0  0  0  0  0
    8.6050   48.4020   49.7060 H   0  0  0  0  0  0  0  0  0  0  0  0
   10.9230   46.0390   49.7600 O   0  0  0  0  0  0  0  0  0  0  0  0
   10.6040   46.5290   50.5370 H   0  0  0  0  0  0  0  0  0  0  0  0
   10.1940   43.0530   47.8400 C   0  0  0  0  0  0  0  0  0  0  0  0
    8.9010   42.6570   47.3630 O   0  0  0  0  0  0  0  0  0  0  0  0
    8.9320   42.5950   46.3850 H   0  0  0  0  0  0  0  0  0  0  0  0
  1 12  1  1  0  0  0
  1  2  1  0  0  0  0
  1 11  1  0  0  0  0
  2  3  1  0  0  0  0
  2  4  1  0  0  0  0
  4  5  1  0  0  0  0
  5 11  1  6  0  0  0
  6  5  1  6  0  0  0
  6 24  1  0  0  0  0
  6  7  1  0  0  0  0
  7 22  1  6  0  0  0
  8  7  1  0  0  0  0
  8 26  1  6  0  0  0
  9 28  1  1  0  0  0
  9  8  1  0  0  0  0
 10  5  1  0  0  0  0
 10  9  1  0  0  0  0
 12 13  1  0  0  0  0
 14 13  2  0  0  0  0
 15 14  1  0  0  0  0
 16 15  2  0  0  0  0
 17 16  1  0  0  0  0
 18 17  2  0  0  0  0
 18 19  1  0  0  0  0
 19 20  2  0  0  0  0
 20 15  1  0  0  0  0
 20 21  1  0  0  0  0
 21 12  2  0  0  0  0
 23 22  1  0  0  0  0
 24 25  1  0  0  0  0
 26 27  1  0  0  0  0
 29 28  1  0  0  0  0
 30 29  1  0  0  0  0
M  END
>  <minimizedAffinity>
-8.82600307

$$$$
