
 OpenBabel12271914593D

 24 27  0  0  0  0  0  0  0  0999 V2000
    6.7390   49.4420   41.8450 N   0  0  0  0  0  0  0  0  0  0  0  0
    7.3330   49.5320   43.0750 C   0  0  0  0  0  0  0  0  0  0  0  0
    7.4830   48.5650   44.0570 N   0  0  0  0  0  0  0  0  0  0  0  0
    8.2770   48.9450   45.2450 C   0  0  0  0  0  0  0  0  0  0  0  0
    9.2500   47.8110   45.6410 C   0  0  0  0  0  0  0  0  0  0  0  0
    8.5690   46.4860   45.6930 N   0  0  0  0  0  0  0  0  0  0  0  0
    8.8090   45.9930   46.5650 H   0  0  0  0  0  0  0  0  0  0  0  0
    8.9110   45.9390   44.8890 H   0  0  0  0  0  0  0  0  0  0  0  0
    7.0870   46.6190   45.5280 C   0  0  0  0  0  0  0  0  0  0  0  0
    6.8210   47.2770   44.1390 C   0  0  0  0  0  0  0  0  0  0  0  0
    7.8000   50.7530   43.2330 N   0  0  0  0  0  0  0  0  0  0  0  0
    7.5190   51.4820   42.1300 C   0  0  0  0  0  0  0  0  0  0  0  0
    7.8040   52.8090   41.8350 C   0  0  0  0  0  0  0  0  0  0  0  0
    7.3880   53.3400   40.6280 C   0  0  0  0  0  0  0  0  0  0  0  0
    6.6930   52.5420   39.7260 C   0  0  0  0  0  0  0  0  0  0  0  0
    6.4090   51.2070   40.0230 C   0  0  0  0  0  0  0  0  0  0  0  0
    6.8380   50.6880   41.2420 C   0  0  0  0  0  0  0  0  0  0  0  0
    6.0150   48.3580   41.2100 C   0  0  0  0  0  0  0  0  0  0  0  0
    6.8410   47.4630   40.3240 C   0  0  0  0  0  0  0  0  0  0  0  0
    6.9010   47.7350   38.9670 C   0  0  0  0  0  0  0  0  0  0  0  0
    7.7360   47.0000   38.1150 C   0  0  0  0  0  0  0  0  0  0  0  0
    8.5330   46.0010   38.6190 C   0  0  0  0  0  0  0  0  0  0  0  0
    8.4990   45.7260   39.9690 C   0  0  0  0  0  0  0  0  0  0  0  0
    7.6610   46.4500   40.8060 C   0  0  0  0  0  0  0  0  0  0  0  0
  1  2  1  0  0  0  0
  2 11  2  0  0  0  0
  2  3  1  0  0  0  0
  3 10  1  0  0  0  0
  3  4  1  0  0  0  0
  4  5  1  0  0  0  0
  5  6  1  0  0  0  0
  6  7  1  0  0  0  0
  8  6  1  0  0  0  0
  9  6  1  0  0  0  0
 10  9  1  0  0  0  0
 12 11  2  0  0  0  0
 13 12  1  0  0  0  0
 14 13  2  0  0  0  0
 15 16  1  0  0  0  0
 15 14  1  0  0  0  0
 16 17  2  0  0  0  0
 17  1  1  0  0  0  0
 17 12  1  0  0  0  0
 18  1  1  0  0  0  0
 19 24  1  0  0  0  0
 19 18  1  0  0  0  0
 20 19  2  0  0  0  0
 21 22  2  0  0  0  0
 21 20  1  0  0  0  0
 22 23  1  0  0  0  0
 23 24  2  0  0  0  0
M  END
>  <minimizedAffinity>
-8.59383869

$$$$

 OpenBabel12271914593D

 24 27  0  0  0  0  0  0  0  0999 V2000
    8.6330   48.7050   43.3610 N   0  0  0  0  0  0  0  0  0  0  0  0
    7.8660   49.7480   42.9130 C   0  0  0  0  0  0  0  0  0  0  0  0
    7.6810   51.0070   43.4600 N   0  0  0  0  0  0  0  0  0  0  0  0
    6.8700   51.9600   42.6720 C   0  0  0  0  0  0  0  0  0  0  0  0
    7.5270   53.3580   42.6540 C   0  0  0  0  0  0  0  0  0  0  0  0
    7.9310   53.8010   44.0190 N   0  0  0  0  0  0  0  0  0  0  0  0
    7.6150   54.7660   44.1920 H   0  0  0  0  0  0  0  0  0  0  0  0
    8.9610   53.7710   44.0540 H   0  0  0  0  0  0  0  0  0  0  0  0
    7.4340   52.8620   45.0740 C   0  0  0  0  0  0  0  0  0  0  0  0
    8.0500   51.4580   44.7890 C   0  0  0  0  0  0  0  0  0  0  0  0
    7.2770   49.3900   41.7910 N   0  0  0  0  0  0  0  0  0  0  0  0
    7.6310   48.1210   41.4870 C   0  0  0  0  0  0  0  0  0  0  0  0
    7.2650   47.3190   40.4140 C   0  0  0  0  0  0  0  0  0  0  0  0
    7.7520   46.0280   40.3350 C   0  0  0  0  0  0  0  0  0  0  0  0
    8.6020   45.5490   41.3260 C   0  0  0  0  0  0  0  0  0  0  0  0
    8.9720   46.3570   42.4030 C   0  0  0  0  0  0  0  0  0  0  0  0
    8.4740   47.6570   42.4660 C   0  0  0  0  0  0  0  0  0  0  0  0
    9.4180   48.5460   44.5680 C   0  0  0  0  0  0  0  0  0  0  0  0
    8.6950   47.9170   45.7290 C   0  0  0  0  0  0  0  0  0  0  0  0
    9.4370   47.3630   46.7600 C   0  0  0  0  0  0  0  0  0  0  0  0
    8.8180   46.8590   47.9120 C   0  0  0  0  0  0  0  0  0  0  0  0
    7.4520   46.9270   48.0500 C   0  0  0  0  0  0  0  0  0  0  0  0
    6.6980   47.4900   47.0430 C   0  0  0  0  0  0  0  0  0  0  0  0
    7.3170   47.9750   45.9000 C   0  0  0  0  0  0  0  0  0  0  0  0
  1 18  1  0  0  0  0
  2  1  1  0  0  0  0
  2  3  1  0  0  0  0
  3 10  1  0  0  0  0
  4  3  1  0  0  0  0
  5  4  1  0  0  0  0
  5  6  1  0  0  0  0
  6  8  1  0  0  0  0
  6  7  1  0  0  0  0
  6  9  1  0  0  0  0
 10  9  1  0  0  0  0
 11  2  2  0  0  0  0
 12 11  2  0  0  0  0
 12 17  1  0  0  0  0
 13 12  1  0  0  0  0
 14 13  2  0  0  0  0
 14 15  1  0  0  0  0
 15 16  1  0  0  0  0
 16 17  2  0  0  0  0
 17  1  1  0  0  0  0
 18 19  1  0  0  0  0
 19 24  2  0  0  0  0
 19 20  1  0  0  0  0
 20 21  2  0  0  0  0
 21 22  1  0  0  0  0
 23 22  2  0  0  0  0
 24 23  1  0  0  0  0
M  END
>  <minimizedAffinity>
-8.00449467

$$$$

 OpenBabel12271914593D

 24 27  0  0  0  0  0  0  0  0999 V2000
    6.8950   49.9940   41.8460 N   0  0  0  0  0  0  0  0  0  0  0  0
    7.0370   50.0130   40.4840 C   0  0  0  0  0  0  0  0  0  0  0  0
    7.0370   48.9610   39.5810 N   0  0  0  0  0  0  0  0  0  0  0  0
    7.1010   49.3180   38.1480 C   0  0  0  0  0  0  0  0  0  0  0  0
    6.1020   48.4730   37.3260 C   0  0  0  0  0  0  0  0  0  0  0  0
    6.1990   47.0220   37.6530 N   0  0  0  0  0  0  0  0  0  0  0  0
    6.2440   46.4610   36.7910 H   0  0  0  0  0  0  0  0  0  0  0  0
    5.3450   46.7730   38.1750 H   0  0  0  0  0  0  0  0  0  0  0  0
    7.3580   46.7350   38.5570 C   0  0  0  0  0  0  0  0  0  0  0  0
    7.1460   47.5440   39.8730 C   0  0  0  0  0  0  0  0  0  0  0  0
    7.1740   51.2610   40.0890 N   0  0  0  0  0  0  0  0  0  0  0  0
    7.1350   52.0760   41.1670 C   0  0  0  0  0  0  0  0  0  0  0  0
    7.2410   53.4580   41.2510 C   0  0  0  0  0  0  0  0  0  0  0  0
    7.1910   54.0680   42.4910 C   0  0  0  0  0  0  0  0  0  0  0  0
    7.0340   53.2930   43.6350 C   0  0  0  0  0  0  0  0  0  0  0  0
    6.9250   51.9040   43.5480 C   0  0  0  0  0  0  0  0  0  0  0  0
    6.9750   51.3060   42.2910 C   0  0  0  0  0  0  0  0  0  0  0  0
    6.7860   48.8920   42.7810 C   0  0  0  0  0  0  0  0  0  0  0  0
    7.9400   48.7390   43.7340 C   0  0  0  0  0  0  0  0  0  0  0  0
    7.7270   48.1080   44.9500 C   0  0  0  0  0  0  0  0  0  0  0  0
    8.7860   47.8460   45.8290 C   0  0  0  0  0  0  0  0  0  0  0  0
   10.0710   48.1930   45.4870 C   0  0  0  0  0  0  0  0  0  0  0  0
   10.3070   48.8060   44.2760 C   0  0  0  0  0  0  0  0  0  0  0  0
    9.2510   49.0740   43.4150 C   0  0  0  0  0  0  0  0  0  0  0  0
  1 17  1  0  0  0  0
  1 18  1  0  0  0  0
  2  1  1  0  0  0  0
  3 10  1  0  0  0  0
  3  2  1  0  0  0  0
  4  3  1  0  0  0  0
  5  6  1  0  0  0  0
  5  4  1  0  0  0  0
  6  8  1  0  0  0  0
  6  9  1  0  0  0  0
  7  6  1  0  0  0  0
  9 10  1  0  0  0  0
 11  2  2  0  0  0  0
 11 12  2  0  0  0  0
 12 13  1  0  0  0  0
 12 17  1  0  0  0  0
 13 14  2  0  0  0  0
 14 15  1  0  0  0  0
 16 15  1  0  0  0  0
 17 16  2  0  0  0  0
 18 19  1  0  0  0  0
 19 20  1  0  0  0  0
 20 21  2  0  0  0  0
 22 21  1  0  0  0  0
 23 22  2  0  0  0  0
 24 19  2  0  0  0  0
 24 23  1  0  0  0  0
M  END
>  <minimizedAffinity>
-7.9817338

$$$$

 OpenBabel12271914593D

 24 27  0  0  0  0  0  0  0  0999 V2000
    8.4100   49.4280   43.8020 N   0  0  0  0  0  0  0  0  0  0  0  0
    8.0730   48.8960   42.5850 C   0  0  0  0  0  0  0  0  0  0  0  0
    8.3580   47.6470   42.0580 N   0  0  0  0  0  0  0  0  0  0  0  0
    7.7540   47.3270   40.7470 C   0  0  0  0  0  0  0  0  0  0  0  0
    7.1790   45.8930   40.7420 C   0  0  0  0  0  0  0  0  0  0  0  0
    8.1510   44.9020   41.2840 N   0  0  0  0  0  0  0  0  0  0  0  0
    8.2170   44.0840   40.6610 H   0  0  0  0  0  0  0  0  0  0  0  0
    7.7940   44.6000   42.2030 H   0  0  0  0  0  0  0  0  0  0  0  0
    9.4950   45.5180   41.5240 C   0  0  0  0  0  0  0  0  0  0  0  0
    9.3100   46.6720   42.5560 C   0  0  0  0  0  0  0  0  0  0  0  0
    7.3710   49.7850   41.9130 N   0  0  0  0  0  0  0  0  0  0  0  0
    7.2420   50.9060   42.6580 C   0  0  0  0  0  0  0  0  0  0  0  0
    6.5950   52.1020   42.3750 C   0  0  0  0  0  0  0  0  0  0  0  0
    6.6210   53.1230   43.3060 C   0  0  0  0  0  0  0  0  0  0  0  0
    7.2890   52.9410   44.5120 C   0  0  0  0  0  0  0  0  0  0  0  0
    7.9350   51.7370   44.7970 C   0  0  0  0  0  0  0  0  0  0  0  0
    7.8980   50.7170   43.8480 C   0  0  0  0  0  0  0  0  0  0  0  0
    9.2260   48.9070   44.8800 C   0  0  0  0  0  0  0  0  0  0  0  0
    8.4900   48.0920   45.9100 C   0  0  0  0  0  0  0  0  0  0  0  0
    9.2210   47.3390   46.8150 C   0  0  0  0  0  0  0  0  0  0  0  0
    8.5920   46.6470   47.8590 C   0  0  0  0  0  0  0  0  0  0  0  0
    7.2290   46.7210   48.0160 C   0  0  0  0  0  0  0  0  0  0  0  0
    6.4860   47.4780   47.1360 C   0  0  0  0  0  0  0  0  0  0  0  0
    7.1140   48.1510   46.0980 C   0  0  0  0  0  0  0  0  0  0  0  0
  1 17  1  0  0  0  0
  1 18  1  0  0  0  0
  2  1  1  0  0  0  0
  3 10  1  0  0  0  0
  3  2  1  0  0  0  0
  4  3  1  0  0  0  0
  5  4  1  0  0  0  0
  5  6  1  0  0  0  0
  6  9  1  0  0  0  0
  6  8  1  0  0  0  0
  7  6  1  0  0  0  0
  9 10  1  0  0  0  0
 11  2  2  0  0  0  0
 11 12  2  0  0  0  0
 12 17  1  0  0  0  0
 13 12  1  0  0  0  0
 13 14  2  0  0  0  0
 14 15  1  0  0  0  0
 15 16  1  0  0  0  0
 17 16  2  0  0  0  0
 18 19  1  0  0  0  0
 19 24  2  0  0  0  0
 19 20  1  0  0  0  0
 20 21  2  0  0  0  0
 21 22  1  0  0  0  0
 23 22  2  0  0  0  0
 24 23  1  0  0  0  0
M  END
>  <minimizedAffinity>
-7.90104103

$$$$

 OpenBabel12271914593D

 24 27  0  0  0  0  0  0  0  0999 V2000
    6.8330   48.9890   41.1490 N   0  0  0  0  0  0  0  0  0  0  0  0
    7.6670   48.0630   41.7170 C   0  0  0  0  0  0  0  0  0  0  0  0
    8.0080   47.8790   43.0470 N   0  0  0  0  0  0  0  0  0  0  0  0
    8.8560   46.7090   43.3580 C   0  0  0  0  0  0  0  0  0  0  0  0
    8.3380   45.9730   44.6150 C   0  0  0  0  0  0  0  0  0  0  0  0
    8.0670   46.9140   45.7390 N   0  0  0  0  0  0  0  0  0  0  0  0
    8.4870   46.5630   46.6110 H   0  0  0  0  0  0  0  0  0  0  0  0
    7.0440   46.9650   45.8510 H   0  0  0  0  0  0  0  0  0  0  0  0
    8.5370   48.3010   45.4240 C   0  0  0  0  0  0  0  0  0  0  0  0
    7.7710   48.7850   44.1550 C   0  0  0  0  0  0  0  0  0  0  0  0
    8.1450   47.2850   40.7680 N   0  0  0  0  0  0  0  0  0  0  0  0
    7.6500   47.6830   39.5740 C   0  0  0  0  0  0  0  0  0  0  0  0
    7.8680   47.1770   38.2990 C   0  0  0  0  0  0  0  0  0  0  0  0
    7.2530   47.7800   37.2170 C   0  0  0  0  0  0  0  0  0  0  0  0
    6.4260   48.8800   37.4180 C   0  0  0  0  0  0  0  0  0  0  0  0
    6.2060   49.3850   38.7000 C   0  0  0  0  0  0  0  0  0  0  0  0
    6.8310   48.7650   39.7800 C   0  0  0  0  0  0  0  0  0  0  0  0
    6.1150   50.1090   41.7250 C   0  0  0  0  0  0  0  0  0  0  0  0
    6.8760   51.4070   41.7740 C   0  0  0  0  0  0  0  0  0  0  0  0
    7.1070   52.0930   40.5920 C   0  0  0  0  0  0  0  0  0  0  0  0
    7.7170   53.3550   40.5910 C   0  0  0  0  0  0  0  0  0  0  0  0
    8.0810   53.9480   41.7760 C   0  0  0  0  0  0  0  0  0  0  0  0
    7.8460   53.2890   42.9630 C   0  0  0  0  0  0  0  0  0  0  0  0
    7.2520   52.0340   42.9560 C   0  0  0  0  0  0  0  0  0  0  0  0
  1  2  1  0  0  0  0
  1 18  1  0  0  0  0
  2  3  1  0  0  0  0
  3  4  1  0  0  0  0
  3 10  1  0  0  0  0
  4  5  1  0  0  0  0
  5  6  1  0  0  0  0
  6  8  1  0  0  0  0
  6  7  1  0  0  0  0
  9  6  1  0  0  0  0
 10  9  1  0  0  0  0
 11  2  2  0  0  0  0
 12 17  1  0  0  0  0
 12 11  2  0  0  0  0
 13 12  1  0  0  0  0
 14 15  1  0  0  0  0
 14 13  2  0  0  0  0
 15 16  1  0  0  0  0
 16 17  2  0  0  0  0
 17  1  1  0  0  0  0
 18 19  1  0  0  0  0
 19 24  2  0  0  0  0
 20 19  1  0  0  0  0
 21 20  2  0  0  0  0
 21 22  1  0  0  0  0
 22 23  2  0  0  0  0
 24 23  1  0  0  0  0
M  END
>  <minimizedAffinity>
-7.79486513

$$$$

 OpenBabel12271914593D

 24 27  0  0  0  0  0  0  0  0999 V2000
    7.3090   47.2290   41.8130 N   0  0  0  0  0  0  0  0  0  0  0  0
    8.1950   46.6120   42.6560 C   0  0  0  0  0  0  0  0  0  0  0  0
    8.3340   46.7270   44.0300 N   0  0  0  0  0  0  0  0  0  0  0  0
    9.3230   45.8350   44.6720 C   0  0  0  0  0  0  0  0  0  0  0  0
    8.7490   45.2210   45.9680 C   0  0  0  0  0  0  0  0  0  0  0  0
    8.1180   46.2510   46.8420 N   0  0  0  0  0  0  0  0  0  0  0  0
    8.4430   46.1470   47.8140 H   0  0  0  0  0  0  0  0  0  0  0  0
    7.1000   46.0960   46.8050 H   0  0  0  0  0  0  0  0  0  0  0  0
    8.3630   47.6370   46.3270 C   0  0  0  0  0  0  0  0  0  0  0  0
    7.7460   47.7290   44.8980 C   0  0  0  0  0  0  0  0  0  0  0  0
    8.9650   45.8120   41.9490 N   0  0  0  0  0  0  0  0  0  0  0  0
    8.6140   45.8930   40.6460 C   0  0  0  0  0  0  0  0  0  0  0  0
    9.1360   45.2440   39.5340 C   0  0  0  0  0  0  0  0  0  0  0  0
    8.6100   45.5130   38.2840 C   0  0  0  0  0  0  0  0  0  0  0  0
    7.5680   46.4250   38.1550 C   0  0  0  0  0  0  0  0  0  0  0  0
    7.0420   47.0730   39.2740 C   0  0  0  0  0  0  0  0  0  0  0  0
    7.5820   46.7890   40.5260 C   0  0  0  0  0  0  0  0  0  0  0  0
    6.3050   48.2450   42.0600 C   0  0  0  0  0  0  0  0  0  0  0  0
    6.7310   49.6580   41.7640 C   0  0  0  0  0  0  0  0  0  0  0  0
    6.3140   50.2510   40.5830 C   0  0  0  0  0  0  0  0  0  0  0  0
    6.5930   51.5960   40.3060 C   0  0  0  0  0  0  0  0  0  0  0  0
    7.2740   52.3630   41.2200 C   0  0  0  0  0  0  0  0  0  0  0  0
    7.6830   51.7970   42.4080 C   0  0  0  0  0  0  0  0  0  0  0  0
    7.4130   50.4620   42.6710 C   0  0  0  0  0  0  0  0  0  0  0  0
  1 18  1  0  0  0  0
  1  2  1  0  0  0  0
  2  3  1  0  0  0  0
  3  4  1  0  0  0  0
  3 10  1  0  0  0  0
  4  5  1  0  0  0  0
  5  6  1  0  0  0  0
  6  7  1  0  0  0  0
  8  6  1  0  0  0  0
  9  6  1  0  0  0  0
 10  9  1  0  0  0  0
 11  2  2  0  0  0  0
 12 11  2  0  0  0  0
 13 12  1  0  0  0  0
 14 13  2  0  0  0  0
 15 14  1  0  0  0  0
 15 16  1  0  0  0  0
 16 17  2  0  0  0  0
 17 12  1  0  0  0  0
 17  1  1  0  0  0  0
 19 18  1  0  0  0  0
 19 24  2  0  0  0  0
 20 19  1  0  0  0  0
 21 20  2  0  0  0  0
 21 22  1  0  0  0  0
 22 23  2  0  0  0  0
 23 24  1  0  0  0  0
M  END
>  <minimizedAffinity>
-7.78810167

$$$$

 OpenBabel12271914593D

 24 27  0  0  0  0  0  0  0  0999 V2000
    7.0980   48.0700   42.9120 N   0  0  0  0  0  0  0  0  0  0  0  0
    7.6860   49.0830   43.6210 C   0  0  0  0  0  0  0  0  0  0  0  0
    7.4900   50.4520   43.5350 N   0  0  0  0  0  0  0  0  0  0  0  0
    8.2030   51.2880   44.5240 C   0  0  0  0  0  0  0  0  0  0  0  0
    7.2700   52.3810   45.0930 C   0  0  0  0  0  0  0  0  0  0  0  0
    6.5400   53.1070   44.0150 N   0  0  0  0  0  0  0  0  0  0  0  0
    6.6020   54.1240   44.1600 H   0  0  0  0  0  0  0  0  0  0  0  0
    5.5530   52.8150   44.0700 H   0  0  0  0  0  0  0  0  0  0  0  0
    7.0310   52.7160   42.6550 C   0  0  0  0  0  0  0  0  0  0  0  0
    6.7990   51.1830   42.4890 C   0  0  0  0  0  0  0  0  0  0  0  0
    8.5320   48.5610   44.4850 N   0  0  0  0  0  0  0  0  0  0  0  0
    8.5240   47.2150   44.3580 C   0  0  0  0  0  0  0  0  0  0  0  0
    9.2440   46.2450   45.0430 C   0  0  0  0  0  0  0  0  0  0  0  0
    9.0730   44.9130   44.7110 C   0  0  0  0  0  0  0  0  0  0  0  0
    8.1830   44.5630   43.7010 C   0  0  0  0  0  0  0  0  0  0  0  0
    7.4580   45.5390   43.0160 C   0  0  0  0  0  0  0  0  0  0  0  0
    7.6410   46.8760   43.3640 C   0  0  0  0  0  0  0  0  0  0  0  0
    6.1610   48.0960   41.8070 C   0  0  0  0  0  0  0  0  0  0  0  0
    6.7770   48.2780   40.4450 C   0  0  0  0  0  0  0  0  0  0  0  0
    7.5700   47.2670   39.9270 C   0  0  0  0  0  0  0  0  0  0  0  0
    8.0820   47.3390   38.6240 C   0  0  0  0  0  0  0  0  0  0  0  0
    7.7840   48.4140   37.8220 C   0  0  0  0  0  0  0  0  0  0  0  0
    6.9830   49.4230   38.3130 C   0  0  0  0  0  0  0  0  0  0  0  0
    6.4900   49.3510   39.6080 C   0  0  0  0  0  0  0  0  0  0  0  0
  1 17  1  0  0  0  0
  1  2  1  0  0  0  0
  2 11  2  0  0  0  0
  3  2  1  0  0  0  0
  3  4  1  0  0  0  0
  4  5  1  0  0  0  0
  6  8  1  0  0  0  0
  6  7  1  0  0  0  0
  6  5  1  0  0  0  0
  9  6  1  0  0  0  0
 10  9  1  0  0  0  0
 10  3  1  0  0  0  0
 12 11  2  0  0  0  0
 12 13  1  0  0  0  0
 14 13  2  0  0  0  0
 15 14  1  0  0  0  0
 16 17  2  0  0  0  0
 16 15  1  0  0  0  0
 17 12  1  0  0  0  0
 18  1  1  0  0  0  0
 19 18  1  0  0  0  0
 20 19  1  0  0  0  0
 21 20  2  0  0  0  0
 22 23  2  0  0  0  0
 22 21  1  0  0  0  0
 23 24  1  0  0  0  0
 24 19  2  0  0  0  0
M  END
>  <minimizedAffinity>
-7.72975397

$$$$

 OpenBabel12271914593D

 24 27  0  0  0  0  0  0  0  0999 V2000
    7.0860   48.3480   42.3830 N   0  0  0  0  0  0  0  0  0  0  0  0
    7.8600   47.4880   43.1160 C   0  0  0  0  0  0  0  0  0  0  0  0
    8.0160   46.1170   42.9920 N   0  0  0  0  0  0  0  0  0  0  0  0
    9.0200   45.4820   43.8720 C   0  0  0  0  0  0  0  0  0  0  0  0
    9.8730   44.4610   43.0860 C   0  0  0  0  0  0  0  0  0  0  0  0
    9.0290   43.5420   42.2700 N   0  0  0  0  0  0  0  0  0  0  0  0
    9.3230   42.5650   42.4110 H   0  0  0  0  0  0  0  0  0  0  0  0
    9.1700   43.8000   41.2820 H   0  0  0  0  0  0  0  0  0  0  0  0
    7.5720   43.7240   42.5620 C   0  0  0  0  0  0  0  0  0  0  0  0
    7.2000   45.1990   42.2190 C   0  0  0  0  0  0  0  0  0  0  0  0
    8.5100   48.1760   44.0310 N   0  0  0  0  0  0  0  0  0  0  0  0
    8.1750   49.4820   43.9260 C   0  0  0  0  0  0  0  0  0  0  0  0
    8.5960   50.5790   44.6680 C   0  0  0  0  0  0  0  0  0  0  0  0
    8.0860   51.8300   44.3770 C   0  0  0  0  0  0  0  0  0  0  0  0
    7.1620   51.9770   43.3480 C   0  0  0  0  0  0  0  0  0  0  0  0
    6.7420   50.8740   42.6020 C   0  0  0  0  0  0  0  0  0  0  0  0
    7.2680   49.6210   42.9070 C   0  0  0  0  0  0  0  0  0  0  0  0
    6.1330   48.1060   41.3180 C   0  0  0  0  0  0  0  0  0  0  0  0
    6.6430   48.3670   39.9260 C   0  0  0  0  0  0  0  0  0  0  0  0
    7.5280   47.4660   39.3560 C   0  0  0  0  0  0  0  0  0  0  0  0
    7.9520   47.6030   38.0280 C   0  0  0  0  0  0  0  0  0  0  0  0
    7.4760   48.6330   37.2530 C   0  0  0  0  0  0  0  0  0  0  0  0
    6.5820   49.5310   37.7950 C   0  0  0  0  0  0  0  0  0  0  0  0
    6.1760   49.3950   39.1160 C   0  0  0  0  0  0  0  0  0  0  0  0
  1 17  1  0  0  0  0
  1  2  1  0  0  0  0
  2 11  2  0  0  0  0
  3  2  1  0  0  0  0
  3  4  1  0  0  0  0
  5  4  1  0  0  0  0
  6  7  1  0  0  0  0
  6  9  1  0  0  0  0
  6  5  1  0  0  0  0
  8  6  1  0  0  0  0
 10  9  1  0  0  0  0
 10  3  1  0  0  0  0
 12 11  2  0  0  0  0
 12 13  1  0  0  0  0
 14 13  2  0  0  0  0
 15 14  1  0  0  0  0
 16 17  2  0  0  0  0
 16 15  1  0  0  0  0
 17 12  1  0  0  0  0
 18  1  1  0  0  0  0
 19 18  1  0  0  0  0
 20 19  1  0  0  0  0
 21 20  2  0  0  0  0
 22 23  2  0  0  0  0
 22 21  1  0  0  0  0
 23 24  1  0  0  0  0
 24 19  2  0  0  0  0
M  END
>  <minimizedAffinity>
-7.43026686

$$$$

 OpenBabel12271914593D

 24 27  0  0  0  0  0  0  0  0999 V2000
    8.4580   48.1340   43.6230 N   0  0  0  0  0  0  0  0  0  0  0  0
    8.1260   47.1640   42.7150 C   0  0  0  0  0  0  0  0  0  0  0  0
    8.3920   45.8040   42.7390 N   0  0  0  0  0  0  0  0  0  0  0  0
    7.7990   44.9930   41.6540 C   0  0  0  0  0  0  0  0  0  0  0  0
    7.1940   43.6860   42.2130 C   0  0  0  0  0  0  0  0  0  0  0  0
    8.1370   42.9820   43.1280 N   0  0  0  0  0  0  0  0  0  0  0  0
    8.1940   41.9820   42.8870 H   0  0  0  0  0  0  0  0  0  0  0  0
    7.7610   43.0790   44.0830 H   0  0  0  0  0  0  0  0  0  0  0  0
    9.4900   43.6240   43.1280 C   0  0  0  0  0  0  0  0  0  0  0  0
    9.3160   45.0980   43.6070 C   0  0  0  0  0  0  0  0  0  0  0  0
    7.4530   47.7170   41.7290 N   0  0  0  0  0  0  0  0  0  0  0  0
    7.3370   49.0440   41.9590 C   0  0  0  0  0  0  0  0  0  0  0  0
    6.7200   50.0350   41.2060 C   0  0  0  0  0  0  0  0  0  0  0  0
    6.7540   51.3440   41.6490 C   0  0  0  0  0  0  0  0  0  0  0  0
    7.4020   51.6520   42.8410 C   0  0  0  0  0  0  0  0  0  0  0  0
    8.0190   50.6550   43.5980 C   0  0  0  0  0  0  0  0  0  0  0  0
    7.9730   49.3410   43.1380 C   0  0  0  0  0  0  0  0  0  0  0  0
    9.2480   48.0790   44.8360 C   0  0  0  0  0  0  0  0  0  0  0  0
    8.5070   47.6350   46.0690 C   0  0  0  0  0  0  0  0  0  0  0  0
    9.2300   47.3120   47.2060 C   0  0  0  0  0  0  0  0  0  0  0  0
    8.5880   46.9950   48.4100 C   0  0  0  0  0  0  0  0  0  0  0  0
    7.2160   47.0210   48.4910 C   0  0  0  0  0  0  0  0  0  0  0  0
    6.4790   47.3550   47.3750 C   0  0  0  0  0  0  0  0  0  0  0  0
    7.1220   47.6560   46.1830 C   0  0  0  0  0  0  0  0  0  0  0  0
  1 18  1  0  0  0  0
  2  3  1  0  0  0  0
  2  1  1  0  0  0  0
  3 10  1  0  0  0  0
  4  5  1  0  0  0  0
  4  3  1  0  0  0  0
  5  6  1  0  0  0  0
  6  8  1  0  0  0  0
  7  6  1  0  0  0  0
  9  6  1  0  0  0  0
  9 10  1  0  0  0  0
 11 12  2  0  0  0  0
 11  2  2  0  0  0  0
 12 17  1  0  0  0  0
 13 14  2  0  0  0  0
 13 12  1  0  0  0  0
 14 15  1  0  0  0  0
 15 16  1  0  0  0  0
 17 16  2  0  0  0  0
 17  1  1  0  0  0  0
 18 19  1  0  0  0  0
 19 24  2  0  0  0  0
 19 20  1  0  0  0  0
 20 21  2  0  0  0  0
 21 22  1  0  0  0  0
 23 22  2  0  0  0  0
 24 23  1  0  0  0  0
M  END
>  <minimizedAffinity>
-7.40727854

$$$$
