
 OpenBabel12271915033D

 25 29  0  0  1  0  0  0  0  0999 V2000
    7.8410   47.2670   45.8480 C   0  0  1  0  0  0  0  0  0  0  0  0
    7.3780   47.5860   44.4180 C   0  0  1  0  0  0  0  0  0  0  0  0
    7.4200   49.0020   43.9020 C   0  0  0  0  0  0  0  0  0  0  0  0
    7.8530   50.0380   44.7090 C   0  0  0  0  0  0  0  0  0  0  0  0
    7.9130   51.3240   44.2330 C   0  0  0  0  0  0  0  0  0  0  0  0
    8.3350   52.4450   44.9010 O   0  0  0  0  0  0  0  0  0  0  0  0
    8.1230   53.5160   43.9710 C   0  0  0  0  0  0  0  0  0  0  0  0
    7.7110   52.9950   42.7000 O   0  0  0  0  0  0  0  0  0  0  0  0
    7.5470   51.6440   42.9440 C   0  0  0  0  0  0  0  0  0  0  0  0
    7.1090   50.6620   42.1040 C   0  0  0  0  0  0  0  0  0  0  0  0
    7.0410   49.3300   42.5560 C   0  0  0  0  0  0  0  0  0  0  0  0
    6.5740   48.4190   41.4660 C   0  0  0  0  0  0  0  0  0  0  0  0
    7.0470   46.9860   41.6070 C   0  0  0  0  0  0  0  0  0  0  0  0
    8.4130   46.9190   42.1970 N   0  0  2  0  0  0  0  0  0  0  0  0
    8.9240   47.7940   41.9960 H   0  0  0  0  0  0  0  0  0  0  0  0
    9.1850   45.7650   41.6650 C   0  0  0  0  0  0  0  0  0  0  0  0
    8.6320   44.5800   42.4520 C   0  0  0  0  0  0  0  0  0  0  0  0
    8.0270   45.1790   43.7250 C   0  0  0  0  0  0  0  0  0  0  0  0
    8.3690   46.6710   43.6500 C   0  0  2  0  0  0  0  0  0  0  0  0
    9.6280   46.9590   44.4110 C   0  0  0  0  0  0  0  0  0  0  0  0
    9.3320   47.2850   45.6650 C   0  0  1  0  0  0  0  0  0  0  0  0
    7.3330   48.0860   46.8490 O   0  0  0  0  0  0  0  0  0  0  0  0
    6.3970   48.2190   46.6880 H   0  0  0  0  0  0  0  0  0  0  0  0
   10.2680   47.7430   46.5620 O   0  0  0  0  0  0  0  0  0  0  0  0
   10.8020   46.8270   47.5080 C   0  0  0  0  0  0  0  0  0  0  0  0
  1 22  1  1  0  0  0
  2 19  1  6  0  0  0
  2  1  1  0  0  0  0
  3  2  1  0  0  0  0
  3  4  1  0  0  0  0
  5  4  2  0  0  0  0
  5  6  1  0  0  0  0
  7  6  1  0  0  0  0
  8  9  1  0  0  0  0
  8  7  1  0  0  0  0
  9  5  1  0  0  0  0
 10 11  1  0  0  0  0
 10  9  2  0  0  0  0
 11  3  2  0  0  0  0
 12 13  1  0  0  0  0
 12 11  1  0  0  0  0
 13 14  1  0  0  0  0
 14 19  1  1  0  0  0
 15 14  1  0  0  0  0
 16 14  1  0  0  0  0
 16 17  1  0  0  0  0
 17 18  1  0  0  0  0
 19 18  1  1  0  0  0
 19 20  1  0  0  0  0
 20 21  1  0  0  0  0
 21  1  1  0  0  0  0
 21 24  1  6  0  0  0
 23 22  1  0  0  0  0
 24 25  1  0  0  0  0
M  END
>  <minimizedAffinity>
-8.98529148

$$$$

 OpenBabel12271915033D

 25 29  0  0  1  0  0  0  0  0999 V2000
    6.4170   47.4770   41.5800 C   0  0  1  0  0  0  0  0  0  0  0  0
    6.2300   48.7560   40.7510 C   0  0  1  0  0  0  0  0  0  0  0  0
    6.6240   50.0960   41.3190 C   0  0  0  0  0  0  0  0  0  0  0  0
    7.1360   50.2010   42.6000 C   0  0  0  0  0  0  0  0  0  0  0  0
    7.5150   51.4170   43.1090 C   0  0  0  0  0  0  0  0  0  0  0  0
    8.0530   51.6760   44.3440 O   0  0  0  0  0  0  0  0  0  0  0  0
    8.1900   53.1030   44.3820 C   0  0  0  0  0  0  0  0  0  0  0  0
    7.8640   53.6660   43.1040 O   0  0  0  0  0  0  0  0  0  0  0  0
    7.4040   52.5810   42.3820 C   0  0  0  0  0  0  0  0  0  0  0  0
    6.9020   52.5390   41.1140 C   0  0  0  0  0  0  0  0  0  0  0  0
    6.5090   51.3070   40.5550 C   0  0  0  0  0  0  0  0  0  0  0  0
    6.0280   51.4870   39.1510 C   0  0  0  0  0  0  0  0  0  0  0  0
    6.1840   50.2580   38.2780 C   0  0  0  0  0  0  0  0  0  0  0  0
    7.4130   49.4930   38.6280 N   0  0  2  0  0  0  0  0  0  0  0  0
    8.1110   50.1270   39.0520 H   0  0  0  0  0  0  0  0  0  0  0  0
    8.0090   48.8340   37.4350 C   0  0  0  0  0  0  0  0  0  0  0  0
    7.1270   47.6040   37.2380 C   0  0  0  0  0  0  0  0  0  0  0  0
    6.4810   47.3390   38.6000 C   0  0  0  0  0  0  0  0  0  0  0  0
    7.1180   48.3710   39.5370 C   0  0  2  0  0  0  0  0  0  0  0  0
    8.2910   47.7720   40.2560 C   0  0  0  0  0  0  0  0  0  0  0  0
    7.8930   47.2510   41.4120 C   0  0  1  0  0  0  0  0  0  0  0  0
    5.9460   47.5240   42.8870 O   0  0  0  0  0  0  0  0  0  0  0  0
    5.0870   47.9500   42.8850 H   0  0  0  0  0  0  0  0  0  0  0  0
    8.7650   46.7630   42.3550 O   0  0  0  0  0  0  0  0  0  0  0  0
    9.3310   45.4760   42.1500 C   0  0  0  0  0  0  0  0  0  0  0  0
  1 22  1  1  0  0  0
  2 19  1  6  0  0  0
  2  3  1  0  0  0  0
  2  1  1  0  0  0  0
  3  4  1  0  0  0  0
  4  5  2  0  0  0  0
  5  6  1  0  0  0  0
  6  7  1  0  0  0  0
  8  7  1  0  0  0  0
  9  8  1  0  0  0  0
  9  5  1  0  0  0  0
 10  9  2  0  0  0  0
 11 10  1  0  0  0  0
 11  3  2  0  0  0  0
 12 11  1  0  0  0  0
 13 14  1  0  0  0  0
 13 12  1  0  0  0  0
 14 15  1  0  0  0  0
 14 19  1  1  0  0  0
 16 14  1  0  0  0  0
 17 16  1  0  0  0  0
 17 18  1  0  0  0  0
 19 18  1  6  0  0  0
 19 20  1  0  0  0  0
 20 21  1  0  0  0  0
 21  1  1  0  0  0  0
 21 24  1  1  0  0  0
 23 22  1  0  0  0  0
 25 24  1  0  0  0  0
M  END
>  <minimizedAffinity>
-8.37724972

$$$$

 OpenBabel12271915033D

 25 29  0  0  1  0  0  0  0  0999 V2000
    9.1170   47.2990   44.6180 C   0  0  1  0  0  0  0  0  0  0  0  0
    8.9520   46.8170   43.1690 C   0  0  1  0  0  0  0  0  0  0  0  0
    8.8650   45.3430   42.8620 C   0  0  0  0  0  0  0  0  0  0  0  0
    8.9560   44.4020   43.8710 C   0  0  0  0  0  0  0  0  0  0  0  0
    8.8550   43.0620   43.5950 C   0  0  0  0  0  0  0  0  0  0  0  0
    8.9070   42.0180   44.4840 O   0  0  0  0  0  0  0  0  0  0  0  0
    8.8250   40.8450   43.6630 C   0  0  0  0  0  0  0  0  0  0  0  0
    8.5790   41.2120   42.2980 O   0  0  0  0  0  0  0  0  0  0  0  0
    8.6640   42.5910   42.3150 C   0  0  0  0  0  0  0  0  0  0  0  0
    8.5700   43.4740   41.2790 C   0  0  0  0  0  0  0  0  0  0  0  0
    8.6620   44.8580   41.5260 C   0  0  0  0  0  0  0  0  0  0  0  0
    8.4950   45.6380   40.2610 C   0  0  0  0  0  0  0  0  0  0  0  0
    7.9560   47.0400   40.4610 C   0  0  0  0  0  0  0  0  0  0  0  0
    6.9830   47.0940   41.5880 N   0  0  2  0  0  0  0  0  0  0  0  0
    6.5480   46.1670   41.7190 H   0  0  0  0  0  0  0  0  0  0  0  0
    5.9210   48.1070   41.3490 C   0  0  0  0  0  0  0  0  0  0  0  0
    6.6090   49.4250   41.6910 C   0  0  0  0  0  0  0  0  0  0  0  0
    7.7740   49.0530   42.6130 C   0  0  0  0  0  0  0  0  0  0  0  0
    7.6210   47.5450   42.8390 C   0  0  2  0  0  0  0  0  0  0  0  0
    6.8610   47.2800   44.1040 C   0  0  0  0  0  0  0  0  0  0  0  0
    7.7090   47.1520   45.1210 C   0  0  1  0  0  0  0  0  0  0  0  0
   10.1050   46.6650   45.3620 O   0  0  0  0  0  0  0  0  0  0  0  0
   10.8880   46.5760   44.8140 H   0  0  0  0  0  0  0  0  0  0  0  0
    7.3180   46.7610   46.3790 O   0  0  0  0  0  0  0  0  0  0  0  0
    6.3660   47.5570   47.0700 C   0  0  0  0  0  0  0  0  0  0  0  0
  1 21  1  0  0  0  0
  1 22  1  1  0  0  0
  2 19  1  1  0  0  0
  2  1  1  0  0  0  0
  3  2  1  0  0  0  0
  3  4  1  0  0  0  0
  5  4  2  0  0  0  0
  5  6  1  0  0  0  0
  7  6  1  0  0  0  0
  8  9  1  0  0  0  0
  8  7  1  0  0  0  0
  9  5  1  0  0  0  0
 10 11  1  0  0  0  0
 10  9  2  0  0  0  0
 11  3  2  0  0  0  0
 12 13  1  0  0  0  0
 12 11  1  0  0  0  0
 13 14  1  0  0  0  0
 14 15  1  0  0  0  0
 14 19  1  1  0  0  0
 16 14  1  0  0  0  0
 16 17  1  0  0  0  0
 17 18  1  0  0  0  0
 19 18  1  6  0  0  0
 19 20  1  0  0  0  0
 20 21  1  0  0  0  0
 21 24  1  6  0  0  0
 23 22  1  0  0  0  0
 24 25  1  0  0  0  0
M  END
>  <minimizedAffinity>
-8.16484356

$$$$

 OpenBabel12271915033D

 25 29  0  0  1  0  0  0  0  0999 V2000
    9.4370   45.6220   42.9030 C   0  0  1  0  0  0  0  0  0  0  0  0
    8.9460   47.0320   43.2620 C   0  0  1  0  0  0  0  0  0  0  0  0
    8.1780   47.8510   42.2560 C   0  0  0  0  0  0  0  0  0  0  0  0
    7.9220   47.3590   40.9890 C   0  0  0  0  0  0  0  0  0  0  0  0
    7.2030   48.0940   40.0800 C   0  0  0  0  0  0  0  0  0  0  0  0
    6.8550   47.7360   38.8020 O   0  0  0  0  0  0  0  0  0  0  0  0
    6.1820   48.8890   38.2790 C   0  0  0  0  0  0  0  0  0  0  0  0
    6.0100   49.8720   39.3090 O   0  0  0  0  0  0  0  0  0  0  0  0
    6.7100   49.3450   40.3780 C   0  0  0  0  0  0  0  0  0  0  0  0
    6.9350   49.8820   41.6120 C   0  0  0  0  0  0  0  0  0  0  0  0
    7.6620   49.1530   42.5730 C   0  0  0  0  0  0  0  0  0  0  0  0
    7.7560   49.9100   43.8590 C   0  0  0  0  0  0  0  0  0  0  0  0
    7.9280   49.0360   45.0850 C   0  0  0  0  0  0  0  0  0  0  0  0
    7.1860   47.7520   44.9460 N   0  0  2  0  0  0  0  0  0  0  0  0
    6.3920   47.8740   44.2960 H   0  0  0  0  0  0  0  0  0  0  0  0
    6.6780   47.2660   46.2560 C   0  0  0  0  0  0  0  0  0  0  0  0
    7.9140   46.6480   46.9040 C   0  0  0  0  0  0  0  0  0  0  0  0
    8.8610   46.3150   45.7480 C   0  0  0  0  0  0  0  0  0  0  0  0
    8.0650   46.6610   44.4850 C   0  0  2  0  0  0  0  0  0  0  0  0
    7.3800   45.4400   43.9470 C   0  0  0  0  0  0  0  0  0  0  0  0
    8.1630   44.8390   43.0570 C   0  0  1  0  0  0  0  0  0  0  0  0
   10.0930   45.4970   41.6840 O   0  0  0  0  0  0  0  0  0  0  0  0
   10.7000   46.2340   41.5890 H   0  0  0  0  0  0  0  0  0  0  0  0
    7.7490   43.7780   42.2870 O   0  0  0  0  0  0  0  0  0  0  0  0
    8.3270   42.5030   42.5270 C   0  0  0  0  0  0  0  0  0  0  0  0
  1 22  1  6  0  0  0
  1 21  1  0  0  0  0
  1  2  1  0  0  0  0
  2 19  1  1  0  0  0
  3 11  2  0  0  0  0
  3  2  1  0  0  0  0
  4  3  1  0  0  0  0
  5  9  1  0  0  0  0
  5  4  2  0  0  0  0
  6  5  1  0  0  0  0
  7  6  1  0  0  0  0
  7  8  1  0  0  0  0
  8  9  1  0  0  0  0
  9 10  2  0  0  0  0
 10 11  1  0  0  0  0
 11 12  1  0  0  0  0
 12 13  1  0  0  0  0
 14 19  1  6  0  0  0
 14 13  1  0  0  0  0
 14 16  1  0  0  0  0
 15 14  1  0  0  0  0
 16 17  1  0  0  0  0
 18 17  1  0  0  0  0
 19 20  1  6  0  0  0
 19 18  1  0  0  0  0
 21 24  1  6  0  0  0
 21 20  1  0  0  0  0
 23 22  1  0  0  0  0
 24 25  1  0  0  0  0
M  END
>  <minimizedAffinity>
-8.09450436

$$$$

 OpenBabel12271915033D

 25 29  0  0  1  0  0  0  0  0999 V2000
    9.4470   45.5320   42.4320 C   0  0  1  0  0  0  0  0  0  0  0  0
    8.9260   46.0580   41.0860 C   0  0  1  0  0  0  0  0  0  0  0  0
    8.5490   45.0980   39.9870 C   0  0  0  0  0  0  0  0  0  0  0  0
    8.6860   43.7330   40.1610 C   0  0  0  0  0  0  0  0  0  0  0  0
    8.3220   42.8570   39.1690 C   0  0  0  0  0  0  0  0  0  0  0  0
    8.3800   41.4870   39.2000 O   0  0  0  0  0  0  0  0  0  0  0  0
    7.9550   41.0820   37.8920 C   0  0  0  0  0  0  0  0  0  0  0  0
    7.5070   42.2190   37.1420 O   0  0  0  0  0  0  0  0  0  0  0  0
    7.8100   43.2880   37.9650 C   0  0  0  0  0  0  0  0  0  0  0  0
    7.6560   44.6240   37.7370 C   0  0  0  0  0  0  0  0  0  0  0  0
    8.0130   45.5520   38.7350 C   0  0  0  0  0  0  0  0  0  0  0  0
    7.7270   46.9510   38.2890 C   0  0  0  0  0  0  0  0  0  0  0  0
    7.4670   47.9230   39.4220 C   0  0  0  0  0  0  0  0  0  0  0  0
    6.7550   47.2650   40.5530 N   0  0  2  0  0  0  0  0  0  0  0  0
    6.2130   46.4580   40.2030 H   0  0  0  0  0  0  0  0  0  0  0  0
    5.8400   48.2070   41.2500 C   0  0  0  0  0  0  0  0  0  0  0  0
    6.7820   49.0230   42.1300 C   0  0  0  0  0  0  0  0  0  0  0  0
    8.0310   48.1570   42.3100 C   0  0  0  0  0  0  0  0  0  0  0  0
    7.6890   46.8360   41.6110 C   0  0  2  0  0  0  0  0  0  0  0  0
    7.1600   45.8410   42.6000 C   0  0  0  0  0  0  0  0  0  0  0  0
    8.1590   45.1070   43.0790 C   0  0  1  0  0  0  0  0  0  0  0  0
   10.4480   44.5710   42.3640 O   0  0  0  0  0  0  0  0  0  0  0  0
   11.0840   44.8420   41.6980 H   0  0  0  0  0  0  0  0  0  0  0  0
    7.9660   44.0170   43.8940 O   0  0  0  0  0  0  0  0  0  0  0  0
    7.3400   42.8660   43.3460 C   0  0  0  0  0  0  0  0  0  0  0  0
  1 22  1  6  0  0  0
  1 21  1  0  0  0  0
  2 19  1  1  0  0  0
  2  1  1  0  0  0  0
  3  4  1  0  0  0  0
  3  2  1  0  0  0  0
  5  6  1  0  0  0  0
  5  4  2  0  0  0  0
  7  6  1  0  0  0  0
  8  7  1  0  0  0  0
  8  9  1  0  0  0  0
  9  5  1  0  0  0  0
 10  9  2  0  0  0  0
 10 11  1  0  0  0  0
 11  3  2  0  0  0  0
 12 11  1  0  0  0  0
 12 13  1  0  0  0  0
 13 14  1  0  0  0  0
 14 16  1  0  0  0  0
 14 19  1  1  0  0  0
 15 14  1  0  0  0  0
 16 17  1  0  0  0  0
 17 18  1  0  0  0  0
 19 18  1  1  0  0  0
 19 20  1  0  0  0  0
 20 21  1  0  0  0  0
 21 24  1  6  0  0  0
 23 22  1  0  0  0  0
 25 24  1  0  0  0  0
M  END
>  <minimizedAffinity>
-7.54450941

$$$$

 OpenBabel12271915033D

 25 29  0  0  1  0  0  0  0  0999 V2000
    9.3530   46.8070   46.3210 C   0  0  1  0  0  0  0  0  0  0  0  0
    9.3890   46.5750   44.8040 C   0  0  1  0  0  0  0  0  0  0  0  0
    9.2050   45.1890   44.2400 C   0  0  0  0  0  0  0  0  0  0  0  0
    9.0250   44.1020   45.0760 C   0  0  0  0  0  0  0  0  0  0  0  0
    8.8350   42.8430   44.5630 C   0  0  0  0  0  0  0  0  0  0  0  0
    8.6260   41.6790   45.2590 O   0  0  0  0  0  0  0  0  0  0  0  0
    8.5660   40.6650   44.2470 C   0  0  0  0  0  0  0  0  0  0  0  0
    8.5950   41.2620   42.9430 O   0  0  0  0  0  0  0  0  0  0  0  0
    8.8170   42.6010   43.2070 C   0  0  0  0  0  0  0  0  0  0  0  0
    8.9930   43.6350   42.3350 C   0  0  0  0  0  0  0  0  0  0  0  0
    9.1840   44.9420   42.8260 C   0  0  0  0  0  0  0  0  0  0  0  0
    9.3160   45.9200   41.7010 C   0  0  0  0  0  0  0  0  0  0  0  0
    8.8990   47.3330   42.0540 C   0  0  0  0  0  0  0  0  0  0  0  0
    7.7590   47.3410   43.0130 N   0  0  2  0  0  0  0  0  0  0  0  0
    7.2140   46.4680   42.9160 H   0  0  0  0  0  0  0  0  0  0  0  0
    6.8620   48.5070   42.7910 C   0  0  0  0  0  0  0  0  0  0  0  0
    7.6140   49.6580   43.4540 C   0  0  0  0  0  0  0  0  0  0  0  0
    8.5600   49.0030   44.4640 C   0  0  0  0  0  0  0  0  0  0  0  0
    8.2160   47.5110   44.4040 C   0  0  2  0  0  0  0  0  0  0  0  0
    7.2280   47.1570   45.4760 C   0  0  0  0  0  0  0  0  0  0  0  0
    7.8720   46.7690   46.5720 C   0  0  1  0  0  0  0  0  0  0  0  0
   10.1300   45.9450   47.0870 O   0  0  0  0  0  0  0  0  0  0  0  0
   10.9810   45.8390   46.6570 H   0  0  0  0  0  0  0  0  0  0  0  0
    7.2350   46.2450   47.6710 O   0  0  0  0  0  0  0  0  0  0  0  0
    7.3370   46.9390   48.9060 C   0  0  0  0  0  0  0  0  0  0  0  0
  1 21  1  0  0  0  0
  1 22  1  1  0  0  0
  2 19  1  6  0  0  0
  2  1  1  0  0  0  0
  3  2  1  0  0  0  0
  3  4  1  0  0  0  0
  5  4  2  0  0  0  0
  5  6  1  0  0  0  0
  7  6  1  0  0  0  0
  8  9  1  0  0  0  0
  8  7  1  0  0  0  0
  9  5  1  0  0  0  0
 10 11  1  0  0  0  0
 10  9  2  0  0  0  0
 11  3  2  0  0  0  0
 12 13  1  0  0  0  0
 12 11  1  0  0  0  0
 13 14  1  0  0  0  0
 14 19  1  1  0  0  0
 15 14  1  0  0  0  0
 16 14  1  0  0  0  0
 16 17  1  0  0  0  0
 17 18  1  0  0  0  0
 19 18  1  1  0  0  0
 19 20  1  0  0  0  0
 20 21  1  0  0  0  0
 21 24  1  6  0  0  0
 23 22  1  0  0  0  0
 24 25  1  0  0  0  0
M  END
>  <minimizedAffinity>
-7.52112579

$$$$

 OpenBabel12271915033D

 25 29  0  0  1  0  0  0  0  0999 V2000
    8.5910   47.0390   43.3910 C   0  0  1  0  0  0  0  0  0  0  0  0
    8.4550   46.9550   41.8630 C   0  0  1  0  0  0  0  0  0  0  0  0
    8.1620   45.6350   41.1960 C   0  0  0  0  0  0  0  0  0  0  0  0
    8.0340   44.4770   41.9410 C   0  0  0  0  0  0  0  0  0  0  0  0
    7.7450   43.2790   41.3360 C   0  0  0  0  0  0  0  0  0  0  0  0
    7.5710   42.0590   41.9380 O   0  0  0  0  0  0  0  0  0  0  0  0
    7.3660   41.1490   40.8480 C   0  0  0  0  0  0  0  0  0  0  0  0
    7.2760   41.8700   39.6110 O   0  0  0  0  0  0  0  0  0  0  0  0
    7.5730   43.1710   39.9740 C   0  0  0  0  0  0  0  0  0  0  0  0
    7.6910   44.2800   39.1890 C   0  0  0  0  0  0  0  0  0  0  0  0
    7.9800   45.5280   39.7760 C   0  0  0  0  0  0  0  0  0  0  0  0
    8.0260   46.6060   38.7400 C   0  0  0  0  0  0  0  0  0  0  0  0
    7.7000   47.9890   39.2680 C   0  0  0  0  0  0  0  0  0  0  0  0
    6.6700   47.9330   40.3430 N   0  0  2  0  0  0  0  0  0  0  0  0
    6.0880   47.0870   40.2260 H   0  0  0  0  0  0  0  0  0  0  0  0
    5.7970   49.1360   40.3330 C   0  0  0  0  0  0  0  0  0  0  0  0
    6.6570   50.1980   41.0130 C   0  0  0  0  0  0  0  0  0  0  0  0
    7.6820   49.4250   41.8470 C   0  0  0  0  0  0  0  0  0  0  0  0
    7.2810   47.9550   41.6860 C   0  0  2  0  0  0  0  0  0  0  0  0
    6.4010   47.5240   42.8220 C   0  0  0  0  0  0  0  0  0  0  0  0
    7.1450   47.0140   43.7990 C   0  0  1  0  0  0  0  0  0  0  0  0
    9.4140   46.0870   43.9820 O   0  0  0  0  0  0  0  0  0  0  0  0
   10.2090   46.0020   43.4530 H   0  0  0  0  0  0  0  0  0  0  0  0
    6.6110   46.4030   44.9070 O   0  0  0  0  0  0  0  0  0  0  0  0
    6.6130   47.1120   46.1380 C   0  0  0  0  0  0  0  0  0  0  0  0
  1 21  1  0  0  0  0
  1 22  1  1  0  0  0
  2 19  1  1  0  0  0
  2  1  1  0  0  0  0
  3  2  1  0  0  0  0
  3  4  1  0  0  0  0
  5  6  1  0  0  0  0
  5  4  2  0  0  0  0
  7  6  1  0  0  0  0
  8  9  1  0  0  0  0
  8  7  1  0  0  0  0
  9  5  1  0  0  0  0
 10 11  1  0  0  0  0
 10  9  2  0  0  0  0
 11  3  2  0  0  0  0
 12 13  1  0  0  0  0
 12 11  1  0  0  0  0
 13 14  1  0  0  0  0
 14 19  1  1  0  0  0
 15 14  1  0  0  0  0
 16 14  1  0  0  0  0
 16 17  1  0  0  0  0
 17 18  1  0  0  0  0
 19 18  1  1  0  0  0
 19 20  1  0  0  0  0
 20 21  1  0  0  0  0
 21 24  1  6  0  0  0
 23 22  1  0  0  0  0
 24 25  1  0  0  0  0
M  END
>  <minimizedAffinity>
-7.18338108

$$$$

 OpenBabel12271915033D

 25 29  0  0  1  0  0  0  0  0999 V2000
    9.1260   48.3760   43.4290 C   0  0  1  0  0  0  0  0  0  0  0  0
    8.8250   47.7360   42.0650 C   0  0  1  0  0  0  0  0  0  0  0  0
    8.7600   46.2360   41.9250 C   0  0  0  0  0  0  0  0  0  0  0  0
    8.9920   45.4120   43.0120 C   0  0  0  0  0  0  0  0  0  0  0  0
    8.9100   44.0480   42.8900 C   0  0  0  0  0  0  0  0  0  0  0  0
    9.0930   43.1080   43.8730 O   0  0  0  0  0  0  0  0  0  0  0  0
    8.9680   41.8510   43.1930 C   0  0  0  0  0  0  0  0  0  0  0  0
    8.5650   42.0620   41.8320 O   0  0  0  0  0  0  0  0  0  0  0  0
    8.6010   43.4370   41.6950 C   0  0  0  0  0  0  0  0  0  0  0  0
    8.3670   44.2000   40.5890 C   0  0  0  0  0  0  0  0  0  0  0  0
    8.4340   45.6050   40.6780 C   0  0  0  0  0  0  0  0  0  0  0  0
    8.1060   46.2390   39.3640 C   0  0  0  0  0  0  0  0  0  0  0  0
    7.5410   47.6410   39.4740 C   0  0  0  0  0  0  0  0  0  0  0  0
    6.6920   47.7920   40.6880 N   0  0  2  0  0  0  0  0  0  0  0  0
    6.3070   46.8740   40.9620 H   0  0  0  0  0  0  0  0  0  0  0  0
    5.5740   48.7460   40.4620 C   0  0  0  0  0  0  0  0  0  0  0  0
    6.2470   50.1100   40.5860 C   0  0  0  0  0  0  0  0  0  0  0  0
    7.5150   49.8690   41.4090 C   0  0  0  0  0  0  0  0  0  0  0  0
    7.4420   48.3910   41.8080 C   0  0  2  0  0  0  0  0  0  0  0  0
    6.8300   48.2450   43.1690 C   0  0  0  0  0  0  0  0  0  0  0  0
    7.7840   48.2500   44.0950 C   0  0  1  0  0  0  0  0  0  0  0  0
   10.2090   47.8500   44.1230 O   0  0  0  0  0  0  0  0  0  0  0  0
   10.9320   47.7220   43.5050 H   0  0  0  0  0  0  0  0  0  0  0  0
    7.5440   47.9870   45.4220 O   0  0  0  0  0  0  0  0  0  0  0  0
    7.3310   46.6390   45.8170 C   0  0  0  0  0  0  0  0  0  0  0  0
  1 21  1  0  0  0  0
  1 22  1  1  0  0  0
  2 19  1  1  0  0  0
  2  1  1  0  0  0  0
  3  2  1  0  0  0  0
  3  4  1  0  0  0  0
  5  4  2  0  0  0  0
  5  6  1  0  0  0  0
  7  6  1  0  0  0  0
  8  7  1  0  0  0  0
  9  8  1  0  0  0  0
  9  5  1  0  0  0  0
 10 11  1  0  0  0  0
 10  9  2  0  0  0  0
 11  3  2  0  0  0  0
 12 13  1  0  0  0  0
 12 11  1  0  0  0  0
 13 14  1  0  0  0  0
 14 15  1  0  0  0  0
 14 19  1  1  0  0  0
 16 17  1  0  0  0  0
 16 14  1  0  0  0  0
 17 18  1  0  0  0  0
 19 18  1  6  0  0  0
 19 20  1  0  0  0  0
 20 21  1  0  0  0  0
 21 24  1  6  0  0  0
 23 22  1  0  0  0  0
 24 25  1  0  0  0  0
M  END
>  <minimizedAffinity>
-7.01244879

$$$$

 OpenBabel12271915033D

 25 29  0  0  1  0  0  0  0  0999 V2000
    9.9410   49.1140   43.5210 C   0  0  1  0  0  0  0  0  0  0  0  0
    9.4210   47.6730   43.6300 C   0  0  1  0  0  0  0  0  0  0  0  0
    9.4350   46.9560   44.9550 C   0  0  0  0  0  0  0  0  0  0  0  0
    9.9360   47.5700   46.0890 C   0  0  0  0  0  0  0  0  0  0  0  0
    9.9290   46.9260   47.3000 C   0  0  0  0  0  0  0  0  0  0  0  0
   10.3690   47.4080   48.5070 O   0  0  0  0  0  0  0  0  0  0  0  0
   10.2000   46.3100   49.4130 C   0  0  0  0  0  0  0  0  0  0  0  0
    9.5210   45.2290   48.7600 O   0  0  0  0  0  0  0  0  0  0  0  0
    9.4320   45.6500   47.4470 C   0  0  0  0  0  0  0  0  0  0  0  0
    8.9280   44.9940   46.3620 C   0  0  0  0  0  0  0  0  0  0  0  0
    8.9130   45.6270   45.1040 C   0  0  0  0  0  0  0  0  0  0  0  0
    8.2850   44.7450   44.0710 C   0  0  0  0  0  0  0  0  0  0  0  0
    7.6570   45.4940   42.9130 C   0  0  0  0  0  0  0  0  0  0  0  0
    7.0570   46.7830   43.3590 N   0  0  2  0  0  0  0  0  0  0  0  0
    6.8010   46.7220   44.3580 H   0  0  0  0  0  0  0  0  0  0  0  0
    5.8520   47.1340   42.5620 C   0  0  0  0  0  0  0  0  0  0  0  0
    6.4380   47.6900   41.2670 C   0  0  0  0  0  0  0  0  0  0  0  0
    7.8590   48.1400   41.6190 C   0  0  0  0  0  0  0  0  0  0  0  0
    7.9710   47.9180   43.1310 C   0  0  2  0  0  0  0  0  0  0  0  0
    7.6550   49.1840   43.8710 C   0  0  0  0  0  0  0  0  0  0  0  0
    8.7710   49.8730   44.0830 C   0  0  1  0  0  0  0  0  0  0  0  0
   11.1750   49.3620   44.1100 O   0  0  0  0  0  0  0  0  0  0  0  0
   11.7680   48.6410   43.8880 H   0  0  0  0  0  0  0  0  0  0  0  0
    8.8190   51.0030   44.8630 O   0  0  0  0  0  0  0  0  0  0  0  0
    7.6520   51.8070   44.9610 C   0  0  0  0  0  0  0  0  0  0  0  0
  1  2  1  0  0  0  0
  1 21  1  0  0  0  0
  1 22  1  1  0  0  0
  2 19  1  1  0  0  0
  2  3  1  0  0  0  0
  3 11  2  0  0  0  0
  3  4  1  0  0  0  0
  4  5  2  0  0  0  0
  5  9  1  0  0  0  0
  5  6  1  0  0  0  0
  6  7  1  0  0  0  0
  8  7  1  0  0  0  0
  9  8  1  0  0  0  0
 10  9  2  0  0  0  0
 11 10  1  0  0  0  0
 12 11  1  0  0  0  0
 13 14  1  0  0  0  0
 13 12  1  0  0  0  0
 14 19  1  6  0  0  0
 14 15  1  0  0  0  0
 16 14  1  0  0  0  0
 17 18  1  0  0  0  0
 17 16  1  0  0  0  0
 19 18  1  6  0  0  0
 19 20  1  0  0  0  0
 20 21  1  0  0  0  0
 21 24  1  1  0  0  0
 23 22  1  0  0  0  0
 24 25  1  0  0  0  0
M  END
>  <minimizedAffinity>
-6.8060627

$$$$
