
 OpenBabel12271914553D

 25 29  0  0  1  0  0  0  0  0999 V2000
    8.1010   47.3260   45.9570 C   0  0  1  0  0  0  0  0  0  0  0  0
    7.4950   47.5420   44.4440 C   0  0  1  0  0  0  0  0  0  0  0  0
    7.5560   49.0040   43.9010 C   0  0  0  0  0  0  0  0  0  0  0  0
    7.9830   50.0540   44.7050 C   0  0  0  0  0  0  0  0  0  0  0  0
    7.9590   51.3660   44.2220 C   0  0  0  0  0  0  0  0  0  0  0  0
    8.3460   52.4640   44.9100 O   0  0  0  0  0  0  0  0  0  0  0  0
    7.7690   53.4750   43.9800 C   0  0  0  0  0  0  0  0  0  0  0  0
    7.5940   52.9810   42.6190 O   0  0  0  0  0  0  0  0  0  0  0  0
    7.5360   51.5930   42.9230 C   0  0  0  0  0  0  0  0  0  0  0  0
    7.1400   50.6390   42.0850 C   0  0  0  0  0  0  0  0  0  0  0  0
    7.1090   49.3300   42.5570 C   0  0  0  0  0  0  0  0  0  0  0  0
    6.7420   48.2420   41.6190 C   0  0  0  0  0  0  0  0  0  0  0  0
    8.0130   47.4830   41.2600 C   0  0  0  0  0  0  0  0  0  0  0  0
    8.3070   46.3290   42.2320 N   0  0  2  0  0  0  0  0  0  0  0  0
    9.2200   46.0610   41.9530 H   0  0  0  0  0  0  0  0  0  0  0  0
    7.4530   45.1400   41.9700 C   0  0  0  0  0  0  0  0  0  0  0  0
    7.9470   44.2210   42.9980 C   0  0  0  0  0  0  0  0  0  0  0  0
    7.9520   45.1130   44.2050 C   0  0  0  0  0  0  0  0  0  0  0  0
    8.3630   46.5170   43.7260 C   0  0  2  0  0  0  0  0  0  0  0  0
    9.7280   46.8730   44.3150 C   0  0  0  0  0  0  0  0  0  0  0  0
    9.5640   47.2990   45.5780 C   0  0  2  0  0  0  0  0  0  0  0  0
    7.6340   48.2050   46.9290 O   0  0  0  0  0  0  0  0  0  0  0  0
    7.4020   47.6830   47.6970 H   0  0  0  0  0  0  0  0  0  0  0  0
   10.6400   47.6260   46.3500 O   0  0  0  0  0  0  0  0  0  0  0  0
   10.9040   46.9000   47.5790 C   0  0  0  0  0  0  0  0  0  0  0  0
  1 22  1  1  0  0  0
  2 19  1  6  0  0  0
  2  1  1  0  0  0  0
  3  2  1  0  0  0  0
  3  4  2  0  0  0  0
  5  4  1  0  0  0  0
  5  6  1  0  0  0  0
  7  6  1  0  0  0  0
  8  9  1  0  0  0  0
  8  7  1  0  0  0  0
  9  5  2  0  0  0  0
 10 11  2  0  0  0  0
 10  9  1  0  0  0  0
 11  3  1  0  0  0  0
 12 11  1  0  0  0  0
 13 12  1  0  0  0  0
 13 14  1  0  0  0  0
 14 19  1  1  0  0  0
 15 14  1  0  0  0  0
 16 14  1  0  0  0  0
 16 17  1  0  0  0  0
 17 18  1  0  0  0  0
 19 18  1  1  0  0  0
 19 20  1  0  0  0  0
 20 21  1  0  0  0  0
 21  1  1  0  0  0  0
 21 24  1  1  0  0  0
 22 23  1  0  0  0  0
 24 25  1  0  0  0  0
M  END
>  <minimizedAffinity>
-8.79432774

$$$$

 OpenBabel12271914553D

 25 29  0  0  1  0  0  0  0  0999 V2000
    7.0810   46.5280   42.9220 C   0  0  1  0  0  0  0  0  0  0  0  0
    6.8080   47.1110   41.4090 C   0  0  1  0  0  0  0  0  0  0  0  0
    6.8610   48.6650   41.2710 C   0  0  0  0  0  0  0  0  0  0  0  0
    7.0070   49.4830   42.3850 C   0  0  0  0  0  0  0  0  0  0  0  0
    6.9760   50.8740   42.2470 C   0  0  0  0  0  0  0  0  0  0  0  0
    7.1050   51.7670   43.2540 O   0  0  0  0  0  0  0  0  0  0  0  0
    6.6620   52.9670   42.4920 C   0  0  0  0  0  0  0  0  0  0  0  0
    6.8360   52.8380   41.0500 O   0  0  0  0  0  0  0  0  0  0  0  0
    6.8330   51.4180   40.9810 C   0  0  0  0  0  0  0  0  0  0  0  0
    6.7170   50.7020   39.8660 C   0  0  0  0  0  0  0  0  0  0  0  0
    6.6960   49.3140   39.9820 C   0  0  0  0  0  0  0  0  0  0  0  0
    6.6420   48.4970   38.7460 C   0  0  0  0  0  0  0  0  0  0  0  0
    8.0210   47.8910   38.5220 C   0  0  0  0  0  0  0  0  0  0  0  0
    8.1920   46.5340   39.2230 N   0  0  2  0  0  0  0  0  0  0  0  0
    9.1640   46.3730   39.1100 H   0  0  0  0  0  0  0  0  0  0  0  0
    7.5240   45.4310   38.4830 C   0  0  0  0  0  0  0  0  0  0  0  0
    7.8560   44.2910   39.3420 C   0  0  0  0  0  0  0  0  0  0  0  0
    7.5160   44.8400   40.6960 C   0  0  0  0  0  0  0  0  0  0  0  0
    7.9000   46.3300   40.6870 C   0  0  2  0  0  0  0  0  0  0  0  0
    9.0650   46.5600   41.6510 C   0  0  0  0  0  0  0  0  0  0  0  0
    8.5890   46.6400   42.9040 C   0  0  2  0  0  0  0  0  0  0  0  0
    6.3360   47.1130   43.9410 O   0  0  0  0  0  0  0  0  0  0  0  0
    5.9860   46.4040   44.4800 H   0  0  0  0  0  0  0  0  0  0  0  0
    9.4340   46.7860   43.9640 O   0  0  0  0  0  0  0  0  0  0  0  0
    9.3710   45.8600   45.0810 C   0  0  0  0  0  0  0  0  0  0  0  0
  1 22  1  1  0  0  0
  2 19  1  6  0  0  0
  2  1  1  0  0  0  0
  3  2  1  0  0  0  0
  3  4  2  0  0  0  0
  5  4  1  0  0  0  0
  5  6  1  0  0  0  0
  7  6  1  0  0  0  0
  8  7  1  0  0  0  0
  9  8  1  0  0  0  0
  9  5  2  0  0  0  0
 10 11  2  0  0  0  0
 10  9  1  0  0  0  0
 11  3  1  0  0  0  0
 12 11  1  0  0  0  0
 13 12  1  0  0  0  0
 13 14  1  0  0  0  0
 14 19  1  1  0  0  0
 15 14  1  0  0  0  0
 16 14  1  0  0  0  0
 16 17  1  0  0  0  0
 17 18  1  0  0  0  0
 19 18  1  1  0  0  0
 19 20  1  0  0  0  0
 20 21  1  0  0  0  0
 21  1  1  0  0  0  0
 21 24  1  1  0  0  0
 22 23  1  0  0  0  0
 24 25  1  0  0  0  0
M  END
>  <minimizedAffinity>
-8.24989319

$$$$

 OpenBabel12271914553D

 25 29  0  0  1  0  0  0  0  0999 V2000
    9.5350   48.1340   45.0480 C   0  0  1  0  0  0  0  0  0  0  0  0
    8.9590   47.9320   43.5220 C   0  0  1  0  0  0  0  0  0  0  0  0
    8.6820   46.4540   43.1020 C   0  0  0  0  0  0  0  0  0  0  0  0
    9.0240   45.3920   43.9320 C   0  0  0  0  0  0  0  0  0  0  0  0
    8.8350   44.0750   43.5040 C   0  0  0  0  0  0  0  0  0  0  0  0
    9.1310   42.9660   44.2200 O   0  0  0  0  0  0  0  0  0  0  0  0
    9.0090   41.9890   43.1030 C   0  0  0  0  0  0  0  0  0  0  0  0
    8.1560   42.4530   42.0150 O   0  0  0  0  0  0  0  0  0  0  0  0
    8.2740   43.8490   42.2580 C   0  0  0  0  0  0  0  0  0  0  0  0
    7.8950   44.8100   41.4210 C   0  0  0  0  0  0  0  0  0  0  0  0
    8.1170   46.1310   41.8030 C   0  0  0  0  0  0  0  0  0  0  0  0
    7.6350   47.2190   40.9180 C   0  0  0  0  0  0  0  0  0  0  0  0
    6.3990   47.8350   41.5590 C   0  0  0  0  0  0  0  0  0  0  0  0
    6.7420   48.9840   42.5210 N   0  0  2  0  0  0  0  0  0  0  0  0
    5.8650   49.1490   42.9530 H   0  0  0  0  0  0  0  0  0  0  0  0
    7.0660   50.2430   41.8000 C   0  0  0  0  0  0  0  0  0  0  0  0
    7.3250   51.1410   42.9280 C   0  0  0  0  0  0  0  0  0  0  0  0
    8.2330   50.2930   43.7690 C   0  0  0  0  0  0  0  0  0  0  0  0
    7.7420   48.8400   43.6390 C   0  0  2  0  0  0  0  0  0  0  0  0
    7.1920   48.3680   44.9850 C   0  0  0  0  0  0  0  0  0  0  0  0
    8.2160   48.0020   45.7740 C   0  0  2  0  0  0  0  0  0  0  0  0
   10.6220   47.3380   45.3970 O   0  0  0  0  0  0  0  0  0  0  0  0
   11.2660   47.9060   45.8210 H   0  0  0  0  0  0  0  0  0  0  0  0
    7.9980   47.5940   47.0560 O   0  0  0  0  0  0  0  0  0  0  0  0
    6.6590   47.2430   47.4930 C   0  0  0  0  0  0  0  0  0  0  0  0
  1 22  1  1  0  0  0
  1 21  1  0  0  0  0
  2 19  1  1  0  0  0
  2  1  1  0  0  0  0
  3  2  1  0  0  0  0
  3  4  2  0  0  0  0
  5  4  1  0  0  0  0
  5  6  1  0  0  0  0
  7  6  1  0  0  0  0
  8  9  1  0  0  0  0
  8  7  1  0  0  0  0
  9  5  2  0  0  0  0
 10 11  2  0  0  0  0
 10  9  1  0  0  0  0
 11  3  1  0  0  0  0
 12 13  1  0  0  0  0
 12 11  1  0  0  0  0
 13 14  1  0  0  0  0
 14 15  1  0  0  0  0
 14 19  1  1  0  0  0
 16 14  1  0  0  0  0
 16 17  1  0  0  0  0
 17 18  1  0  0  0  0
 19 18  1  1  0  0  0
 19 20  1  0  0  0  0
 20 21  1  0  0  0  0
 21 24  1  1  0  0  0
 22 23  1  0  0  0  0
 24 25  1  0  0  0  0
M  END
>  <minimizedAffinity>
-8.00428581

$$$$

 OpenBabel12271914553D

 25 29  0  0  1  0  0  0  0  0999 V2000
    8.5050   47.5940   43.0830 C   0  0  1  0  0  0  0  0  0  0  0  0
    8.2940   47.9830   41.5000 C   0  0  1  0  0  0  0  0  0  0  0  0
    8.1730   46.7710   40.5230 C   0  0  0  0  0  0  0  0  0  0  0  0
    8.3580   45.4660   40.9670 C   0  0  0  0  0  0  0  0  0  0  0  0
    8.3190   44.4020   40.0610 C   0  0  0  0  0  0  0  0  0  0  0  0
    8.4870   43.0970   40.3740 O   0  0  0  0  0  0  0  0  0  0  0  0
    8.6540   42.5950   38.9820 C   0  0  0  0  0  0  0  0  0  0  0  0
    8.0510   43.4610   37.9750 O   0  0  0  0  0  0  0  0  0  0  0  0
    8.0600   44.6680   38.7260 C   0  0  0  0  0  0  0  0  0  0  0  0
    7.8440   45.8840   38.2320 C   0  0  0  0  0  0  0  0  0  0  0  0
    7.9260   46.9660   39.1050 C   0  0  0  0  0  0  0  0  0  0  0  0
    7.6160   48.3210   38.5900 C   0  0  0  0  0  0  0  0  0  0  0  0
    6.2460   48.7230   39.1190 C   0  0  0  0  0  0  0  0  0  0  0  0
    6.3220   49.4310   40.4810 N   0  0  2  0  0  0  0  0  0  0  0  0
    5.3650   49.4710   40.7380 H   0  0  0  0  0  0  0  0  0  0  0  0
    6.7530   50.8480   40.3560 C   0  0  0  0  0  0  0  0  0  0  0  0
    6.7190   51.2650   41.7600 C   0  0  0  0  0  0  0  0  0  0  0  0
    7.4450   50.1280   42.4170 C   0  0  0  0  0  0  0  0  0  0  0  0
    7.0490   48.8460   41.6640 C   0  0  2  0  0  0  0  0  0  0  0  0
    6.2290   47.9460   42.5900 C   0  0  0  0  0  0  0  0  0  0  0  0
    7.0620   47.2720   43.3990 C   0  0  2  0  0  0  0  0  0  0  0  0
    9.5140   46.6740   43.3530 O   0  0  0  0  0  0  0  0  0  0  0  0
   10.0250   47.0190   44.0850 H   0  0  0  0  0  0  0  0  0  0  0  0
    6.5770   46.4400   44.3640 O   0  0  0  0  0  0  0  0  0  0  0  0
    6.5140   46.8820   45.7450 C   0  0  0  0  0  0  0  0  0  0  0  0
  1 22  1  6  0  0  0
  1 21  1  0  0  0  0
  2 19  1  1  0  0  0
  2  1  1  0  0  0  0
  3  4  1  0  0  0  0
  3  2  1  0  0  0  0
  5  6  1  0  0  0  0
  5  4  2  0  0  0  0
  7  6  1  0  0  0  0
  8  9  1  0  0  0  0
  8  7  1  0  0  0  0
  9  5  1  0  0  0  0
 10  9  2  0  0  0  0
 10 11  1  0  0  0  0
 11  3  2  0  0  0  0
 12 11  1  0  0  0  0
 12 13  1  0  0  0  0
 13 14  1  0  0  0  0
 14 15  1  0  0  0  0
 14 19  1  1  0  0  0
 16 14  1  0  0  0  0
 16 17  1  0  0  0  0
 17 18  1  0  0  0  0
 19 18  1  1  0  0  0
 19 20  1  0  0  0  0
 20 21  1  0  0  0  0
 21 24  1  1  0  0  0
 22 23  1  0  0  0  0
 24 25  1  0  0  0  0
M  END
>  <minimizedAffinity>
-7.94106245

$$$$

 OpenBabel12271914553D

 25 29  0  0  1  0  0  0  0  0999 V2000
    9.2360   45.4750   42.6320 C   0  0  1  0  0  0  0  0  0  0  0  0
    9.0650   46.9480   43.3400 C   0  0  1  0  0  0  0  0  0  0  0  0
    8.2020   47.9780   42.5450 C   0  0  0  0  0  0  0  0  0  0  0  0
    7.7250   47.6870   41.2710 C   0  0  0  0  0  0  0  0  0  0  0  0
    7.0180   48.6510   40.5480 C   0  0  0  0  0  0  0  0  0  0  0  0
    6.5100   48.4850   39.3050 O   0  0  0  0  0  0  0  0  0  0  0  0
    6.2120   49.9190   39.0360 C   0  0  0  0  0  0  0  0  0  0  0  0
    6.0360   50.7140   40.2460 O   0  0  0  0  0  0  0  0  0  0  0  0
    6.7730   49.8820   41.1330 C   0  0  0  0  0  0  0  0  0  0  0  0
    7.1710   50.2240   42.3550 C   0  0  0  0  0  0  0  0  0  0  0  0
    7.9190   49.2990   43.0790 C   0  0  0  0  0  0  0  0  0  0  0  0
    8.3090   49.6300   44.4700 C   0  0  0  0  0  0  0  0  0  0  0  0
    7.4350   48.8110   45.4110 C   0  0  0  0  0  0  0  0  0  0  0  0
    8.0430   47.4370   45.7360 N   0  0  2  0  0  0  0  0  0  0  0  0
    7.2920   46.9940   46.2090 H   0  0  0  0  0  0  0  0  0  0  0  0
    9.1370   47.5280   46.7390 C   0  0  0  0  0  0  0  0  0  0  0  0
    9.5050   46.1160   46.8670 C   0  0  0  0  0  0  0  0  0  0  0  0
    9.5970   45.7100   45.4250 C   0  0  0  0  0  0  0  0  0  0  0  0
    8.4940   46.4730   44.6710 C   0  0  2  0  0  0  0  0  0  0  0  0
    7.4470   45.4800   44.1640 C   0  0  0  0  0  0  0  0  0  0  0  0
    7.8930   44.9080   43.0340 C   0  0  2  0  0  0  0  0  0  0  0  0
    9.6320   45.4850   41.2980 O   0  0  0  0  0  0  0  0  0  0  0  0
   10.3350   44.8420   41.2050 H   0  0  0  0  0  0  0  0  0  0  0  0
    7.1670   43.9380   42.4090 O   0  0  0  0  0  0  0  0  0  0  0  0
    7.2020   42.5710   42.8980 C   0  0  0  0  0  0  0  0  0  0  0  0
  1 22  1  6  0  0  0
  1 21  1  0  0  0  0
  1  2  1  0  0  0  0
  2 19  1  1  0  0  0
  3 11  1  0  0  0  0
  3  2  1  0  0  0  0
  4  3  2  0  0  0  0
  5  9  2  0  0  0  0
  5  4  1  0  0  0  0
  6  5  1  0  0  0  0
  7  6  1  0  0  0  0
  7  8  1  0  0  0  0
  8  9  1  0  0  0  0
  9 10  1  0  0  0  0
 10 11  2  0  0  0  0
 11 12  1  0  0  0  0
 12 13  1  0  0  0  0
 13 14  1  0  0  0  0
 14 19  1  6  0  0  0
 14 15  1  0  0  0  0
 14 16  1  0  0  0  0
 16 17  1  0  0  0  0
 18 17  1  0  0  0  0
 19 20  1  6  0  0  0
 19 18  1  0  0  0  0
 21 24  1  1  0  0  0
 21 20  1  0  0  0  0
 23 22  1  0  0  0  0
 24 25  1  0  0  0  0
M  END
>  <minimizedAffinity>
-7.87963057

$$$$

 OpenBabel12271914553D

 25 29  0  0  1  0  0  0  0  0999 V2000
    9.0770   46.4090   42.8130 C   0  0  1  0  0  0  0  0  0  0  0  0
    8.5610   47.4680   41.6660 C   0  0  1  0  0  0  0  0  0  0  0  0
    8.0930   46.8240   40.3230 C   0  0  0  0  0  0  0  0  0  0  0  0
    8.2290   45.4600   40.0920 C   0  0  0  0  0  0  0  0  0  0  0  0
    7.8730   44.9180   38.8540 C   0  0  0  0  0  0  0  0  0  0  0  0
    7.9620   43.6120   38.5130 O   0  0  0  0  0  0  0  0  0  0  0  0
    7.7590   43.7900   37.0480 C   0  0  0  0  0  0  0  0  0  0  0  0
    7.0440   45.0150   36.7050 O   0  0  0  0  0  0  0  0  0  0  0  0
    7.3520   45.7540   37.8800 C   0  0  0  0  0  0  0  0  0  0  0  0
    7.1660   47.0620   38.0360 C   0  0  0  0  0  0  0  0  0  0  0  0
    7.5580   47.6360   39.2430 C   0  0  0  0  0  0  0  0  0  0  0  0
    7.2910   49.0770   39.4660 C   0  0  0  0  0  0  0  0  0  0  0  0
    6.1260   49.1940   40.4400 C   0  0  0  0  0  0  0  0  0  0  0  0
    6.5820   49.2130   41.9080 N   0  0  2  0  0  0  0  0  0  0  0  0
    5.7160   49.1310   42.3860 H   0  0  0  0  0  0  0  0  0  0  0  0
    7.1260   50.5360   42.3110 C   0  0  0  0  0  0  0  0  0  0  0  0
    7.4530   50.2770   43.7160 C   0  0  0  0  0  0  0  0  0  0  0  0
    8.1780   48.9680   43.6070 C   0  0  0  0  0  0  0  0  0  0  0  0
    7.4870   48.1610   42.4950 C   0  0  2  0  0  0  0  0  0  0  0  0
    6.8010   46.9380   43.1070 C   0  0  0  0  0  0  0  0  0  0  0  0
    7.7150   45.9750   43.3050 C   0  0  2  0  0  0  0  0  0  0  0  0
   10.0140   45.4690   42.3940 O   0  0  0  0  0  0  0  0  0  0  0  0
   10.7100   45.4490   43.0500 H   0  0  0  0  0  0  0  0  0  0  0  0
    7.3700   44.7960   43.8970 O   0  0  0  0  0  0  0  0  0  0  0  0
    7.3650   43.5660   43.1260 C   0  0  0  0  0  0  0  0  0  0  0  0
  1 22  1  6  0  0  0
  1 21  1  0  0  0  0
  2 19  1  1  0  0  0
  2  1  1  0  0  0  0
  3  2  1  0  0  0  0
  4  3  1  0  0  0  0
  5  4  2  0  0  0  0
  6  5  1  0  0  0  0
  7  6  1  0  0  0  0
  8  7  1  0  0  0  0
  8  9  1  0  0  0  0
  9 10  2  0  0  0  0
  9  5  1  0  0  0  0
 10 11  1  0  0  0  0
 11 12  1  0  0  0  0
 11  3  2  0  0  0  0
 12 13  1  0  0  0  0
 13 14  1  0  0  0  0
 14 16  1  0  0  0  0
 14 15  1  0  0  0  0
 14 19  1  1  0  0  0
 16 17  1  0  0  0  0
 18 17  1  0  0  0  0
 19 20  1  1  0  0  0
 19 18  1  0  0  0  0
 20 21  1  0  0  0  0
 21 24  1  1  0  0  0
 22 23  1  0  0  0  0
 25 24  1  0  0  0  0
M  END
>  <minimizedAffinity>
-7.84482002

$$$$

 OpenBabel12271914553D

 25 29  0  0  1  0  0  0  0  0999 V2000
    9.5140   48.7290   43.5620 C   0  0  1  0  0  0  0  0  0  0  0  0
    9.3870   47.0910   43.6130 C   0  0  1  0  0  0  0  0  0  0  0  0
    9.4140   46.4620   45.0420 C   0  0  0  0  0  0  0  0  0  0  0  0
    9.6550   47.2410   46.1680 C   0  0  0  0  0  0  0  0  0  0  0  0
    9.7490   46.6450   47.4290 C   0  0  0  0  0  0  0  0  0  0  0  0
    9.9810   47.2970   48.5910 O   0  0  0  0  0  0  0  0  0  0  0  0
   10.2780   46.0950   49.4190 C   0  0  0  0  0  0  0  0  0  0  0  0
    9.6890   44.8680   48.8950 O   0  0  0  0  0  0  0  0  0  0  0  0
    9.5660   45.2760   47.5390 C   0  0  0  0  0  0  0  0  0  0  0  0
    9.3040   44.4700   46.5140 C   0  0  0  0  0  0  0  0  0  0  0  0
    9.2530   45.0310   45.2400 C   0  0  0  0  0  0  0  0  0  0  0  0
    8.8900   44.1650   44.0940 C   0  0  0  0  0  0  0  0  0  0  0  0
    7.4620   44.5010   43.6830 C   0  0  0  0  0  0  0  0  0  0  0  0
    7.3970   45.6330   42.6440 N   0  0  2  0  0  0  0  0  0  0  0  0
    6.4240   45.8220   42.6180 H   0  0  0  0  0  0  0  0  0  0  0  0
    7.7410   45.1620   41.2770 C   0  0  0  0  0  0  0  0  0  0  0  0
    7.5820   46.4040   40.5150 C   0  0  0  0  0  0  0  0  0  0  0  0
    8.3350   47.3700   41.3810 C   0  0  0  0  0  0  0  0  0  0  0  0
    8.0790   46.9610   42.8420 C   0  0  2  0  0  0  0  0  0  0  0  0
    7.2580   48.0490   43.5370 C   0  0  0  0  0  0  0  0  0  0  0  0
    8.0770   49.0470   43.9090 C   0  0  2  0  0  0  0  0  0  0  0  0
   10.5600   49.2800   44.2950 O   0  0  0  0  0  0  0  0  0  0  0  0
   10.9960   49.9200   43.7320 H   0  0  0  0  0  0  0  0  0  0  0  0
    7.5820   50.1710   44.5010 O   0  0  0  0  0  0  0  0  0  0  0  0
    7.5020   51.4140   43.7550 C   0  0  0  0  0  0  0  0  0  0  0  0
  1  2  1  0  0  0  0
  1 21  1  0  0  0  0
  1 22  1  1  0  0  0
  2 19  1  1  0  0  0
  2  3  1  0  0  0  0
  3 11  2  0  0  0  0
  3  4  1  0  0  0  0
  4  5  2  0  0  0  0
  5  9  1  0  0  0  0
  5  6  1  0  0  0  0
  6  7  1  0  0  0  0
  8  7  1  0  0  0  0
  9  8  1  0  0  0  0
 10  9  2  0  0  0  0
 11 10  1  0  0  0  0
 12 11  1  0  0  0  0
 13 12  1  0  0  0  0
 14 19  1  1  0  0  0
 14 13  1  0  0  0  0
 15 14  1  0  0  0  0
 16 14  1  0  0  0  0
 17 16  1  0  0  0  0
 17 18  1  0  0  0  0
 19 18  1  6  0  0  0
 19 20  1  0  0  0  0
 20 21  1  0  0  0  0
 21 24  1  6  0  0  0
 23 22  1  0  0  0  0
 25 24  1  0  0  0  0
M  END
>  <minimizedAffinity>
-7.46570587

$$$$

 OpenBabel12271914553D

 25 29  0  0  1  0  0  0  0  0999 V2000
    7.2100   45.1680   42.8330 C   0  0  1  0  0  0  0  0  0  0  0  0
    7.3070   46.5410   43.7320 C   0  0  1  0  0  0  0  0  0  0  0  0
    8.1740   46.4350   45.0260 C   0  0  0  0  0  0  0  0  0  0  0  0
    8.7150   45.2200   45.4330 C   0  0  0  0  0  0  0  0  0  0  0  0
    9.4250   45.1340   46.6340 C   0  0  0  0  0  0  0  0  0  0  0  0
    9.9920   44.0110   47.1330 O   0  0  0  0  0  0  0  0  0  0  0  0
   10.2610   44.5340   48.5010 C   0  0  0  0  0  0  0  0  0  0  0  0
   10.3600   45.9880   48.5590 O   0  0  0  0  0  0  0  0  0  0  0  0
    9.6080   46.2810   47.3890 C   0  0  0  0  0  0  0  0  0  0  0  0
    9.1470   47.4820   47.0510 C   0  0  0  0  0  0  0  0  0  0  0  0
    8.3940   47.5860   45.8840 C   0  0  0  0  0  0  0  0  0  0  0  0
    7.9340   48.9270   45.4510 C   0  0  0  0  0  0  0  0  0  0  0  0
    8.7880   49.3580   44.2660 C   0  0  0  0  0  0  0  0  0  0  0  0
    8.2070   48.8970   42.9190 N   0  0  2  0  0  0  0  0  0  0  0  0
    8.9490   49.1150   42.2980 H   0  0  0  0  0  0  0  0  0  0  0  0
    7.0670   49.7450   42.4790 C   0  0  0  0  0  0  0  0  0  0  0  0
    6.7350   49.1090   41.2020 C   0  0  0  0  0  0  0  0  0  0  0  0
    6.7190   47.6610   41.5960 C   0  0  0  0  0  0  0  0  0  0  0  0
    7.8310   47.4650   42.6410 C   0  0  2  0  0  0  0  0  0  0  0  0
    8.9290   46.5770   42.0520 C   0  0  0  0  0  0  0  0  0  0  0  0
    8.5500   45.2920   42.1440 C   0  0  2  0  0  0  0  0  0  0  0  0
    6.8730   44.0100   43.5280 O   0  0  0  0  0  0  0  0  0  0  0  0
    6.1940   43.5630   43.0230 H   0  0  0  0  0  0  0  0  0  0  0  0
    9.3300   44.2960   41.6350 O   0  0  0  0  0  0  0  0  0  0  0  0
    8.7790   43.3520   40.6800 C   0  0  0  0  0  0  0  0  0  0  0  0
  1 22  1  1  0  0  0
  1  2  1  0  0  0  0
  2 19  1  6  0  0  0
  2  3  1  0  0  0  0
  3  4  2  0  0  0  0
  3 11  1  0  0  0  0
  4  5  1  0  0  0  0
  5  6  1  0  0  0  0
  5  9  2  0  0  0  0
  6  7  1  0  0  0  0
  7  8  1  0  0  0  0
  9  8  1  0  0  0  0
 10  9  1  0  0  0  0
 11 10  2  0  0  0  0
 12 11  1  0  0  0  0
 13 12  1  0  0  0  0
 14 19  1  6  0  0  0
 14 13  1  0  0  0  0
 15 14  1  0  0  0  0
 16 14  1  0  0  0  0
 17 18  1  0  0  0  0
 17 16  1  0  0  0  0
 19 18  1  6  0  0  0
 20 21  1  0  0  0  0
 20 19  1  0  0  0  0
 21 24  1  6  0  0  0
 21  1  1  0  0  0  0
 23 22  1  0  0  0  0
 25 24  1  0  0  0  0
M  END
>  <minimizedAffinity>
-7.35810328

$$$$

 OpenBabel12271914553D

 25 29  0  0  1  0  0  0  0  0999 V2000
    7.1680   46.0580   44.7090 C   0  0  1  0  0  0  0  0  0  0  0  0
    7.2560   45.6360   43.1230 C   0  0  1  0  0  0  0  0  0  0  0  0
    7.2170   46.8240   42.1100 C   0  0  0  0  0  0  0  0  0  0  0  0
    6.9970   48.1280   42.5390 C   0  0  0  0  0  0  0  0  0  0  0  0
    6.8920   49.1660   41.6080 C   0  0  0  0  0  0  0  0  0  0  0  0
    6.6780   50.4690   41.9040 O   0  0  0  0  0  0  0  0  0  0  0  0
    6.3550   50.9190   40.5210 C   0  0  0  0  0  0  0  0  0  0  0  0
    6.9120   50.0600   39.4840 O   0  0  0  0  0  0  0  0  0  0  0  0
    7.0420   48.8770   40.2620 C   0  0  0  0  0  0  0  0  0  0  0  0
    7.2820   47.6610   39.7780 C   0  0  0  0  0  0  0  0  0  0  0  0
    7.3440   46.6020   40.6800 C   0  0  0  0  0  0  0  0  0  0  0  0
    7.6830   45.2510   40.1710 C   0  0  0  0  0  0  0  0  0  0  0  0
    9.1170   44.9410   40.5800 C   0  0  0  0  0  0  0  0  0  0  0  0
    9.2070   44.2710   41.9600 N   0  0  2  0  0  0  0  0  0  0  0  0
   10.1840   44.2910   42.1280 H   0  0  0  0  0  0  0  0  0  0  0  0
    8.8490   42.8290   41.9100 C   0  0  0  0  0  0  0  0  0  0  0  0
    9.0360   42.4550   43.3140 C   0  0  0  0  0  0  0  0  0  0  0  0
    8.3080   43.5690   44.0080 C   0  0  0  0  0  0  0  0  0  0  0  0
    8.5580   44.8480   43.1910 C   0  0  2  0  0  0  0  0  0  0  0  0
    9.4060   45.8190   44.0150 C   0  0  0  0  0  0  0  0  0  0  0  0
    8.6130   46.4690   44.8820 C   0  0  2  0  0  0  0  0  0  0  0  0
    6.1370   46.9280   45.0500 O   0  0  0  0  0  0  0  0  0  0  0  0
    5.7160   46.5770   45.8340 H   0  0  0  0  0  0  0  0  0  0  0  0
    9.1350   47.3540   45.7770 O   0  0  0  0  0  0  0  0  0  0  0  0
   10.5510   47.3210   46.0950 C   0  0  0  0  0  0  0  0  0  0  0  0
  1 21  1  0  0  0  0
  1 22  1  6  0  0  0
  2 19  1  1  0  0  0
  2  1  1  0  0  0  0
  3  4  1  0  0  0  0
  3  2  1  0  0  0  0
  5  6  1  0  0  0  0
  5  4  2  0  0  0  0
  7  6  1  0  0  0  0
  8  9  1  0  0  0  0
  8  7  1  0  0  0  0
  9  5  1  0  0  0  0
 10  9  2  0  0  0  0
 10 11  1  0  0  0  0
 11  3  2  0  0  0  0
 12 13  1  0  0  0  0
 12 11  1  0  0  0  0
 13 14  1  0  0  0  0
 14 15  1  0  0  0  0
 14 19  1  1  0  0  0
 16 14  1  0  0  0  0
 16 17  1  0  0  0  0
 17 18  1  0  0  0  0
 19 18  1  1  0  0  0
 19 20  1  0  0  0  0
 20 21  1  0  0  0  0
 21 24  1  1  0  0  0
 22 23  1  0  0  0  0
 24 25  1  0  0  0  0
M  END
>  <minimizedAffinity>
-7.23498392

$$$$
