
 OpenBabel12271915483D

 22 23  0  0  1  0  0  0  0  0999 V2000
   22.3710  -14.3040   -1.7220 C   0  0  2  0  0  0  0  0  0  0  0  0
   21.4940  -13.3170   -0.9070 C   0  0  2  0  0  0  0  0  0  0  0  0
   20.1570  -13.5010   -1.4490 O   0  0  0  0  0  0  0  0  0  0  0  0
   20.0070  -14.9150   -1.6080 C   0  0  2  0  0  0  0  0  0  0  0  0
   21.3710  -15.3720   -2.1590 C   0  0  0  0  0  0  0  0  0  0  0  0
   18.7840  -15.3010   -2.3840 C   0  0  0  0  0  0  0  0  0  0  0  0
   18.7740  -16.3870   -3.2640 C   0  0  0  0  0  0  0  0  0  0  0  0
   17.5990  -16.7490   -3.9500 C   0  0  0  0  0  0  0  0  0  0  0  0
   17.6170  -17.8670   -4.9060 C   0  0  0  0  0  0  0  0  0  0  0  0
   16.4870  -15.9750   -3.6700 C   0  0  0  0  0  0  0  0  0  0  0  0
   16.4240  -14.9300   -2.8830 N   0  0  0  0  0  0  0  0  0  0  0  0
   17.5710  -14.6150   -2.2030 C   0  0  0  0  0  0  0  0  0  0  0  0
   15.3540  -16.2780   -4.3210 O   0  0  0  0  0  0  0  0  0  0  0  0
   15.0190  -15.2400   -4.4530 H   0  0  0  0  0  0  0  0  0  0  0  0
   23.4800  -14.9360   -1.0840 O   0  0  0  0  0  0  0  0  0  0  0  0
   24.0370  -14.1340   -0.7840 H   0  0  0  0  0  0  0  0  0  0  0  0
   21.8960  -11.8560   -0.9220 C   0  0  0  0  0  0  0  0  0  0  0  0
   23.2450  -11.8250   -1.3480 O   0  0  0  0  0  0  0  0  0  0  0  0
   24.2920  -11.2480   -0.2400 P   0  0  0  0  0  0  0  0  0  0  0  0
   23.4240  -10.2290    0.5550 O   0  0  0  0  0  0  0  0  0  0  0  0
   24.6080  -12.5370    0.5010 O   0  0  0  0  0  0  0  0  0  0  0  0
   25.4090  -10.6310   -1.0490 O   0  0  0  0  0  0  0  0  0  0  0  0
  1 15  1  1  0  0  0
  1  2  1  0  0  0  0
  2 17  1  6  0  0  0
  3  2  1  0  0  0  0
  4  6  1  6  0  0  0
  4  3  1  0  0  0  0
  5  1  1  0  0  0  0
  5  4  1  0  0  0  0
  6 12  2  0  0  0  0
  7  6  1  0  0  0  0
  8 10  1  0  0  0  0
  8  7  2  0  0  0  0
  9  8  1  0  0  0  0
 10 11  2  0  0  0  0
 11 12  1  0  0  0  0
 13 10  1  0  0  0  0
 14 13  1  0  0  0  0
 15 16  1  0  0  0  0
 18 17  1  0  0  0  0
 18 19  1  0  0  0  0
 19 21  1  0  0  0  0
 19 20  1  0  0  0  0
 22 19  2  0  0  0  0
M  END
>  <minimizedAffinity>
-8.02896595

$$$$

 OpenBabel12271915483D

 22 23  0  0  1  0  0  0  0  0999 V2000
   23.3400  -14.3550   -1.5190 C   0  0  2  0  0  0  0  0  0  0  0  0
   22.6980  -13.4490   -0.4340 C   0  0  2  0  0  0  0  0  0  0  0  0
   21.2860  -13.4320   -0.7800 O   0  0  0  0  0  0  0  0  0  0  0  0
   20.9660  -14.7840   -1.1260 C   0  0  2  0  0  0  0  0  0  0  0  0
   22.1820  -15.2510   -1.9490 C   0  0  0  0  0  0  0  0  0  0  0  0
   19.6110  -14.9350   -1.7480 C   0  0  0  0  0  0  0  0  0  0  0  0
   19.3400  -15.9110   -2.7110 C   0  0  0  0  0  0  0  0  0  0  0  0
   18.0470  -16.0540   -3.2500 C   0  0  0  0  0  0  0  0  0  0  0  0
   17.7890  -17.0570   -4.2950 C   0  0  0  0  0  0  0  0  0  0  0  0
   17.0950  -15.1880   -2.7430 C   0  0  0  0  0  0  0  0  0  0  0  0
   17.2760  -14.2330   -1.8640 N   0  0  0  0  0  0  0  0  0  0  0  0
   18.5350  -14.1320   -1.3320 C   0  0  0  0  0  0  0  0  0  0  0  0
   15.8560  -15.2820   -3.2470 O   0  0  0  0  0  0  0  0  0  0  0  0
   15.6470  -14.2030   -3.2350 H   0  0  0  0  0  0  0  0  0  0  0  0
   24.4570  -15.1720   -1.1690 O   0  0  0  0  0  0  0  0  0  0  0  0
   25.1320  -14.4780   -0.8420 H   0  0  0  0  0  0  0  0  0  0  0  0
   23.2450  -12.0440   -0.2910 C   0  0  0  0  0  0  0  0  0  0  0  0
   24.6310  -12.1850   -0.0470 O   0  0  0  0  0  0  0  0  0  0  0  0
   25.5530  -10.9930   -0.6670 P   0  0  0  0  0  0  0  0  0  0  0  0
   26.8400  -11.0650    0.2060 O   0  0  0  0  0  0  0  0  0  0  0  0
   25.7120  -11.5120   -2.0880 O   0  0  0  0  0  0  0  0  0  0  0  0
   24.7350   -9.7370   -0.4840 O   0  0  0  0  0  0  0  0  0  0  0  0
  1 15  1  1  0  0  0
  1  2  1  0  0  0  0
  2 17  1  6  0  0  0
  3  2  1  0  0  0  0
  4  6  1  6  0  0  0
  4  3  1  0  0  0  0
  5  1  1  0  0  0  0
  5  4  1  0  0  0  0
  6 12  2  0  0  0  0
  7  6  1  0  0  0  0
  8 10  1  0  0  0  0
  8  7  2  0  0  0  0
  9  8  1  0  0  0  0
 10 11  2  0  0  0  0
 11 12  1  0  0  0  0
 13 14  1  0  0  0  0
 13 10  1  0  0  0  0
 15 16  1  0  0  0  0
 17 18  1  0  0  0  0
 19 22  1  0  0  0  0
 19 18  1  0  0  0  0
 19 20  1  0  0  0  0
 21 19  2  0  0  0  0
M  END
>  <minimizedAffinity>
-7.49213028

$$$$

 OpenBabel12271915483D

 22 23  0  0  1  0  0  0  0  0999 V2000
   22.4490  -14.2870   -1.7050 C   0  0  2  0  0  0  0  0  0  0  0  0
   21.5820  -13.4210   -0.7530 C   0  0  2  0  0  0  0  0  0  0  0  0
   20.2290  -13.5830   -1.2630 O   0  0  0  0  0  0  0  0  0  0  0  0
   20.1080  -14.9750   -1.5720 C   0  0  2  0  0  0  0  0  0  0  0  0
   21.4600  -15.3290   -2.2200 C   0  0  0  0  0  0  0  0  0  0  0  0
   18.8650  -15.3090   -2.3390 C   0  0  0  0  0  0  0  0  0  0  0  0
   18.8050  -16.3890   -3.2240 C   0  0  0  0  0  0  0  0  0  0  0  0
   17.6110  -16.7010   -3.9030 C   0  0  0  0  0  0  0  0  0  0  0  0
   17.5780  -17.8140   -4.8640 C   0  0  0  0  0  0  0  0  0  0  0  0
   16.5330  -15.8860   -3.6100 C   0  0  0  0  0  0  0  0  0  0  0  0
   16.5170  -14.8430   -2.8170 N   0  0  0  0  0  0  0  0  0  0  0  0
   17.6810  -14.5770   -2.1460 C   0  0  0  0  0  0  0  0  0  0  0  0
   15.3840  -16.1410   -4.2530 O   0  0  0  0  0  0  0  0  0  0  0  0
   15.0880  -15.0900   -4.3770 H   0  0  0  0  0  0  0  0  0  0  0  0
   23.5990  -14.9530   -1.1830 O   0  0  0  0  0  0  0  0  0  0  0  0
   24.1470  -14.1720   -0.8170 H   0  0  0  0  0  0  0  0  0  0  0  0
   21.9460  -11.9560   -0.6210 C   0  0  0  0  0  0  0  0  0  0  0  0
   20.9880  -11.2440   -1.3810 O   0  0  0  0  0  0  0  0  0  0  0  0
   21.6190  -10.2330   -2.4920 P   0  0  0  0  0  0  0  0  0  0  0  0
   20.4260   -9.2860   -2.8120 O   0  0  0  0  0  0  0  0  0  0  0  0
   22.7290   -9.6090   -1.6610 O   0  0  0  0  0  0  0  0  0  0  0  0
   22.0390  -11.1280   -3.6340 O   0  0  0  0  0  0  0  0  0  0  0  0
  1 15  1  1  0  0  0
  1  2  1  0  0  0  0
  2 17  1  6  0  0  0
  3  2  1  0  0  0  0
  4  6  1  6  0  0  0
  4  3  1  0  0  0  0
  5  1  1  0  0  0  0
  5  4  1  0  0  0  0
  6 12  2  0  0  0  0
  7  6  1  0  0  0  0
  8 10  1  0  0  0  0
  8  7  2  0  0  0  0
  9  8  1  0  0  0  0
 10 11  2  0  0  0  0
 11 12  1  0  0  0  0
 13 10  1  0  0  0  0
 14 13  1  0  0  0  0
 15 16  1  0  0  0  0
 18 17  1  0  0  0  0
 19 21  1  0  0  0  0
 19 18  1  0  0  0  0
 20 19  1  0  0  0  0
 22 19  2  0  0  0  0
M  END
>  <minimizedAffinity>
-7.40724421

$$$$

 OpenBabel12271915483D

 22 23  0  0  1  0  0  0  0  0999 V2000
   23.4630  -14.4080   -1.6020 C   0  0  2  0  0  0  0  0  0  0  0  0
   22.9250  -13.1290   -0.9080 C   0  0  2  0  0  0  0  0  0  0  0  0
   21.5100  -13.1130   -1.2440 O   0  0  0  0  0  0  0  0  0  0  0  0
   21.0720  -14.4680   -1.0940 C   0  0  2  0  0  0  0  0  0  0  0  0
   22.2240  -15.2960   -1.6950 C   0  0  0  0  0  0  0  0  0  0  0  0
   19.6940  -14.7120   -1.6280 C   0  0  0  0  0  0  0  0  0  0  0  0
   19.4380  -15.6620   -2.6200 C   0  0  0  0  0  0  0  0  0  0  0  0
   18.1260  -15.8960   -3.0750 C   0  0  0  0  0  0  0  0  0  0  0  0
   17.8810  -16.8680   -4.1520 C   0  0  0  0  0  0  0  0  0  0  0  0
   17.1430  -15.1430   -2.4600 C   0  0  0  0  0  0  0  0  0  0  0  0
   17.3050  -14.2180   -1.5460 N   0  0  0  0  0  0  0  0  0  0  0  0
   18.5860  -14.0290   -1.0980 C   0  0  0  0  0  0  0  0  0  0  0  0
   15.8830  -15.3240   -2.8820 O   0  0  0  0  0  0  0  0  0  0  0  0
   15.5830  -14.2700   -2.7990 H   0  0  0  0  0  0  0  0  0  0  0  0
   24.5180  -15.1430   -0.9820 O   0  0  0  0  0  0  0  0  0  0  0  0
   25.2560  -14.4390   -0.9180 H   0  0  0  0  0  0  0  0  0  0  0  0
   23.5880  -11.8140   -1.2660 C   0  0  0  0  0  0  0  0  0  0  0  0
   23.9350  -11.9100   -2.6340 O   0  0  0  0  0  0  0  0  0  0  0  0
   25.0430  -10.8230   -3.1300 P   0  0  0  0  0  0  0  0  0  0  0  0
   24.4070   -9.4660   -2.7090 O   0  0  0  0  0  0  0  0  0  0  0  0
   26.2260  -11.2670   -2.2830 O   0  0  0  0  0  0  0  0  0  0  0  0
   25.1520  -11.0340   -4.6220 O   0  0  0  0  0  0  0  0  0  0  0  0
  1 15  1  1  0  0  0
  1  2  1  0  0  0  0
  2 17  1  6  0  0  0
  3  4  1  0  0  0  0
  3  2  1  0  0  0  0
  4  6  1  6  0  0  0
  5  1  1  0  0  0  0
  5  4  1  0  0  0  0
  6 12  2  0  0  0  0
  7  6  1  0  0  0  0
  8  7  2  0  0  0  0
  8 10  1  0  0  0  0
  9  8  1  0  0  0  0
 10 11  2  0  0  0  0
 11 12  1  0  0  0  0
 13 14  1  0  0  0  0
 13 10  1  0  0  0  0
 15 16  1  0  0  0  0
 18 17  1  0  0  0  0
 19 20  1  0  0  0  0
 19 18  1  0  0  0  0
 19 21  1  0  0  0  0
 22 19  2  0  0  0  0
M  END
>  <minimizedAffinity>
-7.12017775

$$$$

 OpenBabel12271915483D

 22 23  0  0  1  0  0  0  0  0999 V2000
   20.9900  -11.8810   -2.8800 C   0  0  2  0  0  0  0  0  0  0  0  0
   21.4390  -13.0200   -1.9260 C   0  0  2  0  0  0  0  0  0  0  0  0
   20.3480  -13.9800   -1.9840 O   0  0  0  0  0  0  0  0  0  0  0  0
   19.9880  -14.0570   -3.3670 C   0  0  2  0  0  0  0  0  0  0  0  0
   20.0460  -12.5940   -3.8460 C   0  0  0  0  0  0  0  0  0  0  0  0
   18.7180  -14.8150   -3.6110 C   0  0  0  0  0  0  0  0  0  0  0  0
   18.7150  -16.1620   -3.9830 C   0  0  0  0  0  0  0  0  0  0  0  0
   17.5050  -16.8570   -4.1680 C   0  0  0  0  0  0  0  0  0  0  0  0
   17.5210  -18.2630   -4.6030 C   0  0  0  0  0  0  0  0  0  0  0  0
   16.3570  -16.1210   -3.9360 C   0  0  0  0  0  0  0  0  0  0  0  0
   16.2770  -14.8540   -3.6130 N   0  0  0  0  0  0  0  0  0  0  0  0
   17.4670  -14.2060   -3.4100 C   0  0  0  0  0  0  0  0  0  0  0  0
   15.1850  -16.7460   -4.1230 O   0  0  0  0  0  0  0  0  0  0  0  0
   14.6620  -15.8790   -4.5490 H   0  0  0  0  0  0  0  0  0  0  0  0
   21.9770  -11.1740   -3.6300 O   0  0  0  0  0  0  0  0  0  0  0  0
   22.5750  -10.8000   -2.8910 H   0  0  0  0  0  0  0  0  0  0  0  0
   21.7590  -12.6400   -0.4940 C   0  0  0  0  0  0  0  0  0  0  0  0
   21.9510  -11.2380   -0.4950 O   0  0  0  0  0  0  0  0  0  0  0  0
   23.4820  -10.7630   -0.2020 P   0  0  0  0  0  0  0  0  0  0  0  0
   23.9700  -10.2940   -1.6040 O   0  0  0  0  0  0  0  0  0  0  0  0
   23.2120   -9.6440    0.7910 O   0  0  0  0  0  0  0  0  0  0  0  0
   24.1740  -11.9970    0.3280 O   0  0  0  0  0  0  0  0  0  0  0  0
  1 15  1  6  0  0  0
  1  2  1  0  0  0  0
  2 17  1  1  0  0  0
  3  2  1  0  0  0  0
  4  6  1  1  0  0  0
  4  3  1  0  0  0  0
  5  4  1  0  0  0  0
  5  1  1  0  0  0  0
  6 12  2  0  0  0  0
  7  6  1  0  0  0  0
  8  7  2  0  0  0  0
  8 10  1  0  0  0  0
  9  8  1  0  0  0  0
 10 11  2  0  0  0  0
 11 12  1  0  0  0  0
 13 10  1  0  0  0  0
 14 13  1  0  0  0  0
 15 16  1  0  0  0  0
 18 17  1  0  0  0  0
 18 19  1  0  0  0  0
 19 22  1  0  0  0  0
 19 21  1  0  0  0  0
 20 19  2  0  0  0  0
M  END
>  <minimizedAffinity>
-7.01345396

$$$$

 OpenBabel12271915483D

 22 23  0  0  1  0  0  0  0  0999 V2000
   24.6550  -13.3260   -1.0470 C   0  0  2  0  0  0  0  0  0  0  0  0
   24.1510  -12.1400   -0.1820 C   0  0  2  0  0  0  0  0  0  0  0  0
   22.7100  -12.1480   -0.3770 O   0  0  0  0  0  0  0  0  0  0  0  0
   22.3300  -13.5270   -0.3210 C   0  0  2  0  0  0  0  0  0  0  0  0
   23.4400  -14.2480   -1.1080 C   0  0  0  0  0  0  0  0  0  0  0  0
   20.9130  -13.7720   -0.7420 C   0  0  0  0  0  0  0  0  0  0  0  0
   20.5680  -14.7920   -1.6330 C   0  0  0  0  0  0  0  0  0  0  0  0
   19.2230  -15.0220   -1.9810 C   0  0  0  0  0  0  0  0  0  0  0  0
   18.8820  -16.0710   -2.9550 C   0  0  0  0  0  0  0  0  0  0  0  0
   18.3020  -14.1930   -1.3670 C   0  0  0  0  0  0  0  0  0  0  0  0
   18.5470  -13.2020   -0.5450 N   0  0  0  0  0  0  0  0  0  0  0  0
   19.8600  -13.0150   -0.1990 C   0  0  0  0  0  0  0  0  0  0  0  0
   17.0120  -14.3700   -1.6900 O   0  0  0  0  0  0  0  0  0  0  0  0
   16.7450  -13.3040   -1.6740 H   0  0  0  0  0  0  0  0  0  0  0  0
   25.7880  -14.0740   -0.6070 O   0  0  0  0  0  0  0  0  0  0  0  0
   26.5070  -13.3520   -0.5450 H   0  0  0  0  0  0  0  0  0  0  0  0
   24.7360  -10.7720   -0.4700 C   0  0  0  0  0  0  0  0  0  0  0  0
   25.9000  -10.9990   -1.2430 O   0  0  0  0  0  0  0  0  0  0  0  0
   27.2830  -10.4810   -0.5540 P   0  0  0  0  0  0  0  0  0  0  0  0
   27.6660  -11.6650    0.3800 O   0  0  0  0  0  0  0  0  0  0  0  0
   28.1450  -10.3390   -1.7980 O   0  0  0  0  0  0  0  0  0  0  0  0
   26.9030   -9.2070    0.1650 O   0  0  0  0  0  0  0  0  0  0  0  0
  1 15  1  1  0  0  0
  1  2  1  0  0  0  0
  2 17  1  6  0  0  0
  3  4  1  0  0  0  0
  3  2  1  0  0  0  0
  4  6  1  6  0  0  0
  5  1  1  0  0  0  0
  5  4  1  0  0  0  0
  6 12  2  0  0  0  0
  7  6  1  0  0  0  0
  8  7  2  0  0  0  0
  8 10  1  0  0  0  0
  9  8  1  0  0  0  0
 10 11  2  0  0  0  0
 11 12  1  0  0  0  0
 13 14  1  0  0  0  0
 13 10  1  0  0  0  0
 15 16  1  0  0  0  0
 18 19  1  0  0  0  0
 18 17  1  0  0  0  0
 19 22  1  0  0  0  0
 19 20  1  0  0  0  0
 21 19  2  0  0  0  0
M  END
>  <minimizedAffinity>
-6.69535971

$$$$

 OpenBabel12271915483D

 22 23  0  0  1  0  0  0  0  0999 V2000
   19.6630  -13.6290   -1.1840 C   0  0  2  0  0  0  0  0  0  0  0  0
   20.2720  -14.8900   -1.8520 C   0  0  2  0  0  0  0  0  0  0  0  0
   21.6270  -14.4890   -2.1960 O   0  0  0  0  0  0  0  0  0  0  0  0
   22.1010  -13.7540   -1.0640 C   0  0  2  0  0  0  0  0  0  0  0  0
   20.8900  -12.8980   -0.6450 C   0  0  0  0  0  0  0  0  0  0  0  0
   23.3960  -13.0430   -1.3140 C   0  0  0  0  0  0  0  0  0  0  0  0
   23.5850  -12.2090   -2.4200 C   0  0  0  0  0  0  0  0  0  0  0  0
   24.8010  -11.5240   -2.6090 C   0  0  0  0  0  0  0  0  0  0  0  0
   24.9980  -10.6860   -3.8010 C   0  0  0  0  0  0  0  0  0  0  0  0
   25.7520  -11.7250   -1.6250 C   0  0  0  0  0  0  0  0  0  0  0  0
   25.6610  -12.5070   -0.5780 N   0  0  0  0  0  0  0  0  0  0  0  0
   24.4590  -13.1400   -0.4000 C   0  0  0  0  0  0  0  0  0  0  0  0
   26.9310  -11.1040   -1.7820 O   0  0  0  0  0  0  0  0  0  0  0  0
   27.5440  -11.9240   -1.3840 H   0  0  0  0  0  0  0  0  0  0  0  0
   18.7150  -13.7910   -0.1300 O   0  0  0  0  0  0  0  0  0  0  0  0
   17.9820  -14.3370   -0.5860 H   0  0  0  0  0  0  0  0  0  0  0  0
   19.5460  -15.4590   -3.0540 C   0  0  0  0  0  0  0  0  0  0  0  0
   18.2830  -15.8870   -2.5830 O   0  0  0  0  0  0  0  0  0  0  0  0
   17.0150  -15.0850   -3.2190 P   0  0  0  0  0  0  0  0  0  0  0  0
   16.2730  -16.1940   -4.0210 O   0  0  0  0  0  0  0  0  0  0  0  0
   16.3240  -14.6500   -1.9360 O   0  0  0  0  0  0  0  0  0  0  0  0
   17.6320  -13.9970   -4.0670 O   0  0  0  0  0  0  0  0  0  0  0  0
  1  5  1  0  0  0  0
  1 15  1  1  0  0  0
  2 17  1  6  0  0  0
  2  1  1  0  0  0  0
  3  2  1  0  0  0  0
  3  4  1  0  0  0  0
  4  6  1  6  0  0  0
  4  5  1  0  0  0  0
  6 12  2  0  0  0  0
  7  6  1  0  0  0  0
  8  7  2  0  0  0  0
  8 10  1  0  0  0  0
  9  8  1  0  0  0  0
 10 11  2  0  0  0  0
 11 12  1  0  0  0  0
 13 10  1  0  0  0  0
 13 14  1  0  0  0  0
 16 15  1  0  0  0  0
 17 18  1  0  0  0  0
 19 18  1  0  0  0  0
 19 21  1  0  0  0  0
 20 19  1  0  0  0  0
 22 19  2  0  0  0  0
M  END
>  <minimizedAffinity>
-6.57708931

$$$$

 OpenBabel12271915483D

 22 23  0  0  1  0  0  0  0  0999 V2000
   19.7950  -12.7010   -1.5750 C   0  0  2  0  0  0  0  0  0  0  0  0
   20.1610  -14.1370   -1.1150 C   0  0  2  0  0  0  0  0  0  0  0  0
   21.6100  -14.1110   -0.9950 O   0  0  0  0  0  0  0  0  0  0  0  0
   21.9140  -12.8610   -0.3670 C   0  0  2  0  0  0  0  0  0  0  0  0
   20.9580  -11.8630   -1.0490 C   0  0  0  0  0  0  0  0  0  0  0  0
   23.3760  -12.5310   -0.3720 C   0  0  0  0  0  0  0  0  0  0  0  0
   23.8410  -11.2130   -0.3780 C   0  0  0  0  0  0  0  0  0  0  0  0
   25.2200  -10.9340   -0.3450 C   0  0  0  0  0  0  0  0  0  0  0  0
   25.6930   -9.5420   -0.3960 C   0  0  0  0  0  0  0  0  0  0  0  0
   26.0480  -12.0410   -0.2850 C   0  0  0  0  0  0  0  0  0  0  0  0
   25.6910  -13.3020   -0.3030 N   0  0  0  0  0  0  0  0  0  0  0  0
   24.3430  -13.5480   -0.3070 C   0  0  0  0  0  0  0  0  0  0  0  0
   27.3690  -11.8140   -0.2720 O   0  0  0  0  0  0  0  0  0  0  0  0
   27.6380  -12.6760   -0.8980 H   0  0  0  0  0  0  0  0  0  0  0  0
   18.5670  -12.1230   -1.1350 O   0  0  0  0  0  0  0  0  0  0  0  0
   17.8800  -12.7920   -1.4860 H   0  0  0  0  0  0  0  0  0  0  0  0
   19.7040  -15.2850   -1.9910 C   0  0  0  0  0  0  0  0  0  0  0  0
   18.2920  -15.2040   -2.0370 O   0  0  0  0  0  0  0  0  0  0  0  0
   17.6380  -15.5870   -3.4800 P   0  0  0  0  0  0  0  0  0  0  0  0
   16.1810  -15.9820   -3.1030 O   0  0  0  0  0  0  0  0  0  0  0  0
   17.7770  -14.2450   -4.1820 O   0  0  0  0  0  0  0  0  0  0  0  0
   18.4870  -16.7230   -4.0000 O   0  0  0  0  0  0  0  0  0  0  0  0
  1 15  1  1  0  0  0
  1  2  1  0  0  0  0
  1  5  1  0  0  0  0
  2 17  1  6  0  0  0
  2  3  1  0  0  0  0
  3  4  1  0  0  0  0
  4  6  1  6  0  0  0
  5  4  1  0  0  0  0
  6 12  2  0  0  0  0
  7  6  1  0  0  0  0
  7  8  2  0  0  0  0
  8 10  1  0  0  0  0
  9  8  1  0  0  0  0
 10 13  1  0  0  0  0
 11 10  2  0  0  0  0
 12 11  1  0  0  0  0
 14 13  1  0  0  0  0
 16 15  1  0  0  0  0
 18 17  1  0  0  0  0
 19 20  1  0  0  0  0
 19 18  1  0  0  0  0
 21 19  2  0  0  0  0
 22 19  1  0  0  0  0
M  END
>  <minimizedAffinity>
-6.30175209

$$$$

 OpenBabel12271915483D

 22 23  0  0  1  0  0  0  0  0999 V2000
   18.6320  -11.8820   -2.0720 C   0  0  2  0  0  0  0  0  0  0  0  0
   19.1800  -13.2980   -2.3910 C   0  0  2  0  0  0  0  0  0  0  0  0
   20.6080  -13.1890   -2.1380 O   0  0  0  0  0  0  0  0  0  0  0  0
   20.7200  -12.4340   -0.9270 C   0  0  2  0  0  0  0  0  0  0  0  0
   19.6530  -11.3320   -1.0790 C   0  0  0  0  0  0  0  0  0  0  0  0
   22.1210  -12.0020   -0.6210 C   0  0  0  0  0  0  0  0  0  0  0  0
   23.1830  -12.9090   -0.5590 C   0  0  0  0  0  0  0  0  0  0  0  0
   24.4960  -12.4680   -0.3060 C   0  0  0  0  0  0  0  0  0  0  0  0
   25.5930  -13.4420   -0.2000 C   0  0  0  0  0  0  0  0  0  0  0  0
   24.6420  -11.1010   -0.1520 C   0  0  0  0  0  0  0  0  0  0  0  0
   23.6980  -10.1930   -0.1700 N   0  0  0  0  0  0  0  0  0  0  0  0
   22.4330  -10.6430   -0.4460 C   0  0  0  0  0  0  0  0  0  0  0  0
   25.8770  -10.6470    0.1090 O   0  0  0  0  0  0  0  0  0  0  0  0
   25.5610   -9.8580    0.8060 H   0  0  0  0  0  0  0  0  0  0  0  0
   17.3240  -11.7540   -1.5150 O   0  0  0  0  0  0  0  0  0  0  0  0
   16.7460  -12.2040   -2.2260 H   0  0  0  0  0  0  0  0  0  0  0  0
   18.9090  -13.8530   -3.7750 C   0  0  0  0  0  0  0  0  0  0  0  0
   17.5020  -13.9400   -3.8930 O   0  0  0  0  0  0  0  0  0  0  0  0
   16.8430  -15.2510   -3.1840 P   0  0  0  0  0  0  0  0  0  0  0  0
   16.2000  -14.6590   -1.8960 O   0  0  0  0  0  0  0  0  0  0  0  0
   15.8540  -15.6520   -4.2680 O   0  0  0  0  0  0  0  0  0  0  0  0
   18.0060  -16.1840   -2.9380 O   0  0  0  0  0  0  0  0  0  0  0  0
  1 15  1  1  0  0  0
  1  5  1  0  0  0  0
  2 17  1  6  0  0  0
  2  3  1  0  0  0  0
  2  1  1  0  0  0  0
  3  4  1  0  0  0  0
  4  6  1  6  0  0  0
  5  4  1  0  0  0  0
  6  7  1  0  0  0  0
  6 12  2  0  0  0  0
  7  8  2  0  0  0  0
  8  9  1  0  0  0  0
  8 10  1  0  0  0  0
 10 13  1  0  0  0  0
 11 10  2  0  0  0  0
 12 11  1  0  0  0  0
 13 14  1  0  0  0  0
 16 15  1  0  0  0  0
 18 17  1  0  0  0  0
 18 19  1  0  0  0  0
 19 22  1  0  0  0  0
 19 20  1  0  0  0  0
 21 19  2  0  0  0  0
M  END
>  <minimizedAffinity>
-6.20644474

$$$$
