
 OpenBabel12271915423D

 37 41  0  0  1  0  0  0  0  0999 V2000
   21.9620  -12.6190   -1.2260 C   0  0  2  0  0  0  0  0  0  0  0  0
   21.8160  -11.5260   -0.3120 O   0  0  0  0  0  0  0  0  0  0  0  0
   21.9030  -10.2230   -0.6650 C   0  0  0  0  0  0  0  0  0  0  0  0
   21.9970   -9.3680    0.1720 O   0  0  0  0  0  0  0  0  0  0  0  0
   21.8740   -9.9160   -2.1090 C   0  0  1  0  0  0  0  0  0  0  0  0
   21.7360  -10.8490   -3.1010 C   0  0  0  0  0  0  0  0  0  0  0  0
   21.6930  -10.7070   -4.3410 O   0  0  0  0  0  0  0  0  0  0  0  0
   21.5980  -12.3290   -2.6710 C   0  0  0  0  0  0  0  0  0  0  0  0
   21.0800  -13.7700   -0.6520 C   0  0  0  0  0  0  0  0  0  0  0  0
   21.1530  -15.0450   -1.4850 C   0  0  0  0  0  0  0  0  0  0  0  0
   19.7690  -15.3080   -2.0370 C   0  0  0  0  0  0  0  0  0  0  0  0
   18.8100  -14.4990   -1.1820 C   0  0  0  0  0  0  0  0  0  0  0  0
   19.6040  -13.3400   -0.6460 C   0  0  0  0  0  0  0  0  0  0  0  0
   21.9820   -8.4340   -2.4160 C   0  0  0  0  0  0  0  0  0  0  0  0
   23.3360   -7.9130   -2.9890 C   0  0  0  0  0  0  0  0  0  0  0  0
   23.5210   -7.7390   -4.3850 N   0  0  0  0  0  0  0  0  0  0  0  0
   24.7970   -7.3090   -4.4390 C   0  0  0  0  0  0  0  0  0  0  0  0
   25.5690   -6.9710   -5.5400 N   0  0  0  0  0  0  0  0  0  0  0  0
   26.8370   -6.6230   -5.3740 C   0  0  0  0  0  0  0  0  0  0  0  0
   27.7180   -6.2630   -6.5410 C   0  0  0  0  0  0  0  0  0  0  0  0
   27.4240   -6.5950   -4.0080 C   0  0  0  0  0  0  0  0  0  0  0  0
   26.6430   -6.9250   -2.9700 C   0  0  0  0  0  0  0  0  0  0  0  0
   27.1650   -6.9310   -1.5620 C   0  0  0  0  0  0  0  0  0  0  0  0
   25.3250   -7.2840   -3.1740 N   0  0  0  0  0  0  0  0  0  0  0  0
   24.3890   -7.7310   -2.2810 N   0  0  0  0  0  0  0  0  0  0  0  0
   23.3970  -13.2050   -1.1630 C   0  0  0  0  0  0  0  0  0  0  0  0
   24.2260  -12.6180   -0.0440 C   0  0  0  0  0  0  0  0  0  0  0  0
   27.4460  -10.7970   -0.4210 C   0  0  0  0  0  0  0  0  0  0  0  0
   27.4840  -10.4620   -1.7580 N   0  0  0  0  0  0  0  0  0  0  0  0
   26.4370  -10.8490   -2.5240 C   0  0  0  0  0  0  0  0  0  0  0  0
   25.3810  -11.5290   -2.0060 C   0  0  0  0  0  0  0  0  0  0  0  0
   25.3500  -11.8900   -0.6420 C   0  0  0  0  0  0  0  0  0  0  0  0
   26.4410  -11.4790    0.1280 C   0  0  0  0  0  0  0  0  0  0  0  0
   29.3830  -11.6600    0.8360 C   0  0  0  0  0  0  0  0  0  0  0  0
   28.6610  -10.3930    0.4060 C   0  0  0  0  0  0  0  0  0  0  0  0
   26.4630  -10.4590   -3.9930 C   0  0  0  0  0  0  0  0  0  0  0  0
   25.2260  -10.9930   -4.7020 C   0  0  0  0  0  0  0  0  0  0  0  0
  1 26  1  1  0  0  0
  1  9  1  0  0  0  0
  1  2  1  0  0  0  0
  3  2  1  0  0  0  0
  3  4  2  0  0  0  0
  5 14  1  1  0  0  0
  5  3  1  0  0  0  0
  6  8  1  0  0  0  0
  6  5  1  0  0  0  0
  7  6  2  0  0  0  0
  8  1  1  0  0  0  0
  9 13  1  0  0  0  0
 10  9  1  0  0  0  0
 11 10  1  0  0  0  0
 11 12  1  0  0  0  0
 12 13  1  0  0  0  0
 15 14  1  0  0  0  0
 15 25  2  0  0  0  0
 16 15  2  0  0  0  0
 17 16  2  0  0  0  0
 17 24  1  0  0  0  0
 18 19  2  0  0  0  0
 18 17  2  0  0  0  0
 19 21  1  0  0  0  0
 20 19  1  0  0  0  0
 21 22  2  0  0  0  0
 22 23  1  0  0  0  0
 24 22  1  0  0  0  0
 24 25  1  0  0  0  0
 26 27  1  0  0  0  0
 28 33  1  0  0  0  0
 28 35  1  0  0  0  0
 29 28  2  0  0  0  0
 30 31  1  0  0  0  0
 30 29  2  0  0  0  0
 31 32  1  0  0  0  0
 32 27  1  0  0  0  0
 32 33  2  0  0  0  0
 35 34  1  0  0  0  0
 36 30  1  0  0  0  0
 37 36  1  0  0  0  0
M  END
>  <minimizedAffinity>
-8.36310482

$$$$

 OpenBabel12271915423D

 37 41  0  0  1  0  0  0  0  0999 V2000
   22.0190  -12.5850   -1.2380 C   0  0  2  0  0  0  0  0  0  0  0  0
   21.9010  -11.5020   -0.3080 O   0  0  0  0  0  0  0  0  0  0  0  0
   21.9900  -10.1950   -0.6480 C   0  0  0  0  0  0  0  0  0  0  0  0
   22.1090   -9.3510    0.1970 O   0  0  0  0  0  0  0  0  0  0  0  0
   21.9340   -9.8710   -2.0880 C   0  0  1  0  0  0  0  0  0  0  0  0
   21.7680  -10.7900   -3.0870 C   0  0  0  0  0  0  0  0  0  0  0  0
   21.7010  -10.6340   -4.3240 O   0  0  0  0  0  0  0  0  0  0  0  0
   21.6270  -12.2740   -2.6720 C   0  0  0  0  0  0  0  0  0  0  0  0
   21.1390  -13.7350   -0.6600 C   0  0  0  0  0  0  0  0  0  0  0  0
   21.2340  -15.0210   -1.4750 C   0  0  0  0  0  0  0  0  0  0  0  0
   19.8580  -15.3030   -2.0400 C   0  0  0  0  0  0  0  0  0  0  0  0
   18.8820  -14.4900   -1.2070 C   0  0  0  0  0  0  0  0  0  0  0  0
   19.6590  -13.3190   -0.6780 C   0  0  0  0  0  0  0  0  0  0  0  0
   22.0480   -8.3860   -2.3790 C   0  0  0  0  0  0  0  0  0  0  0  0
   23.3910   -7.8700   -2.9820 C   0  0  0  0  0  0  0  0  0  0  0  0
   23.5470   -7.6990   -4.3820 N   0  0  0  0  0  0  0  0  0  0  0  0
   24.8220   -7.2730   -4.4640 C   0  0  0  0  0  0  0  0  0  0  0  0
   25.5720   -6.9400   -5.5810 N   0  0  0  0  0  0  0  0  0  0  0  0
   26.8440   -6.5950   -5.4430 C   0  0  0  0  0  0  0  0  0  0  0  0
   27.7020   -6.2400   -6.6290 C   0  0  0  0  0  0  0  0  0  0  0  0
   27.4610   -6.5650   -4.0890 C   0  0  0  0  0  0  0  0  0  0  0  0
   26.7000   -6.8920   -3.0350 C   0  0  0  0  0  0  0  0  0  0  0  0
   27.2520   -6.8960   -1.6380 C   0  0  0  0  0  0  0  0  0  0  0  0
   25.3780   -7.2470   -3.2100 N   0  0  0  0  0  0  0  0  0  0  0  0
   24.4590   -7.6900   -2.2960 N   0  0  0  0  0  0  0  0  0  0  0  0
   23.4500  -13.1830   -1.2120 C   0  0  0  0  0  0  0  0  0  0  0  0
   24.2910  -12.6520   -0.0750 C   0  0  0  0  0  0  0  0  0  0  0  0
   26.4310  -10.8380   -2.5150 C   0  0  0  0  0  0  0  0  0  0  0  0
   27.5060  -10.4120   -1.7630 N   0  0  0  0  0  0  0  0  0  0  0  0
   27.5050  -10.7290   -0.4470 C   0  0  0  0  0  0  0  0  0  0  0  0
   26.5010  -11.4490    0.1180 C   0  0  0  0  0  0  0  0  0  0  0  0
   25.3920  -11.8690   -0.6470 C   0  0  0  0  0  0  0  0  0  0  0  0
   25.4150  -11.5300   -2.0020 C   0  0  0  0  0  0  0  0  0  0  0  0
   25.1970  -11.0130   -4.6420 C   0  0  0  0  0  0  0  0  0  0  0  0
   26.4330  -10.4230   -3.9830 C   0  0  0  0  0  0  0  0  0  0  0  0
   28.7000  -10.2830    0.3790 C   0  0  0  0  0  0  0  0  0  0  0  0
   29.5130  -11.4910    0.8240 C   0  0  0  0  0  0  0  0  0  0  0  0
  1 26  1  1  0  0  0
  1  9  1  0  0  0  0
  1  2  1  0  0  0  0
  3  2  1  0  0  0  0
  3  4  2  0  0  0  0
  5 14  1  1  0  0  0
  5  3  1  0  0  0  0
  6  8  1  0  0  0  0
  6  5  1  0  0  0  0
  7  6  2  0  0  0  0
  8  1  1  0  0  0  0
 10  9  1  0  0  0  0
 11 10  1  0  0  0  0
 11 12  1  0  0  0  0
 12 13  1  0  0  0  0
 13  9  1  0  0  0  0
 15 14  1  0  0  0  0
 15 25  2  0  0  0  0
 16 15  2  0  0  0  0
 17 16  2  0  0  0  0
 17 24  1  0  0  0  0
 18 19  2  0  0  0  0
 18 17  2  0  0  0  0
 19 21  1  0  0  0  0
 20 19  1  0  0  0  0
 21 22  2  0  0  0  0
 22 23  1  0  0  0  0
 24 22  1  0  0  0  0
 24 25  1  0  0  0  0
 26 27  1  0  0  0  0
 28 33  1  0  0  0  0
 28 29  2  0  0  0  0
 29 30  2  0  0  0  0
 30 31  1  0  0  0  0
 30 36  1  0  0  0  0
 32 27  1  0  0  0  0
 32 31  1  0  0  0  0
 33 32  2  0  0  0  0
 34 35  1  0  0  0  0
 35 28  1  0  0  0  0
 36 37  1  0  0  0  0
M  END
>  <minimizedAffinity>
-8.33247471

$$$$

 OpenBabel12271915423D

 37 41  0  0  1  0  0  0  0  0999 V2000
   18.6220  -13.6090   -1.9570 C   0  0  2  0  0  0  0  0  0  0  0  0
   17.5330  -12.6890   -1.8180 O   0  0  0  0  0  0  0  0  0  0  0  0
   17.5390  -11.4250   -2.3020 C   0  0  0  0  0  0  0  0  0  0  0  0
   16.7000  -10.6380   -1.9630 O   0  0  0  0  0  0  0  0  0  0  0  0
   18.6140  -11.0760   -3.2530 C   0  0  1  0  0  0  0  0  0  0  0  0
   19.5740  -11.9440   -3.6960 C   0  0  0  0  0  0  0  0  0  0  0  0
   20.5170  -11.7640   -4.4940 O   0  0  0  0  0  0  0  0  0  0  0  0
   19.5230  -13.3950   -3.1610 C   0  0  0  0  0  0  0  0  0  0  0  0
   17.9750  -15.0270   -1.9940 C   0  0  0  0  0  0  0  0  0  0  0  0
   18.7350  -16.0020   -2.8860 C   0  0  0  0  0  0  0  0  0  0  0  0
   17.8080  -16.4010   -4.0150 C   0  0  0  0  0  0  0  0  0  0  0  0
   16.4030  -16.0580   -3.5510 C   0  0  0  0  0  0  0  0  0  0  0  0
   16.5510  -14.9350   -2.5650 C   0  0  0  0  0  0  0  0  0  0  0  0
   18.5490   -9.6400   -3.7390 C   0  0  0  0  0  0  0  0  0  0  0  0
   19.6710   -8.6650   -3.2620 C   0  0  0  0  0  0  0  0  0  0  0  0
   19.4500   -7.7660   -2.1880 N   0  0  0  0  0  0  0  0  0  0  0  0
   20.6310   -7.1200   -2.1270 C   0  0  0  0  0  0  0  0  0  0  0  0
   21.0390   -6.1060   -1.2750 N   0  0  0  0  0  0  0  0  0  0  0  0
   22.2390   -5.5620   -1.4240 C   0  0  0  0  0  0  0  0  0  0  0  0
   22.7200   -4.4480   -0.5320 C   0  0  0  0  0  0  0  0  0  0  0  0
   23.1420   -6.0460   -2.5030 C   0  0  0  0  0  0  0  0  0  0  0  0
   22.7100   -7.0320   -3.3020 C   0  0  0  0  0  0  0  0  0  0  0  0
   23.5580   -7.5670   -4.4200 C   0  0  0  0  0  0  0  0  0  0  0  0
   21.4550   -7.5770   -3.1230 N   0  0  0  0  0  0  0  0  0  0  0  0
   20.7920   -8.5180   -3.8650 N   0  0  0  0  0  0  0  0  0  0  0  0
   19.4840  -13.6430   -0.6670 C   0  0  0  0  0  0  0  0  0  0  0  0
   20.7990  -14.3630   -0.8540 C   0  0  0  0  0  0  0  0  0  0  0  0
   24.1830  -12.9220   -0.3050 C   0  0  0  0  0  0  0  0  0  0  0  0
   23.9570  -11.5640   -0.2250 N   0  0  0  0  0  0  0  0  0  0  0  0
   22.6790  -11.1400   -0.3590 C   0  0  0  0  0  0  0  0  0  0  0  0
   21.6500  -12.0070   -0.5510 C   0  0  0  0  0  0  0  0  0  0  0  0
   21.8830  -13.3950   -0.6530 C   0  0  0  0  0  0  0  0  0  0  0  0
   23.2090  -13.8090   -0.5110 C   0  0  0  0  0  0  0  0  0  0  0  0
   26.4990  -12.1290   -0.0150 C   0  0  0  0  0  0  0  0  0  0  0  0
   25.6370  -13.3680   -0.2010 C   0  0  0  0  0  0  0  0  0  0  0  0
   22.4230   -9.6460   -0.2450 C   0  0  0  0  0  0  0  0  0  0  0  0
   23.7290   -8.8760   -0.3850 C   0  0  0  0  0  0  0  0  0  0  0  0
  1  2  1  0  0  0  0
  1 26  1  1  0  0  0
  3  4  2  0  0  0  0
  3  2  1  0  0  0  0
  5 14  1  6  0  0  0
  5  3  1  0  0  0  0
  6  5  1  0  0  0  0
  6  8  1  0  0  0  0
  7  6  2  0  0  0  0
  8  1  1  0  0  0  0
  9  1  1  0  0  0  0
 10  9  1  0  0  0  0
 11 12  1  0  0  0  0
 11 10  1  0  0  0  0
 12 13  1  0  0  0  0
 13  9  1  0  0  0  0
 14 15  1  0  0  0  0
 15 16  2  0  0  0  0
 16 17  2  0  0  0  0
 17 18  2  0  0  0  0
 19 18  2  0  0  0  0
 19 20  1  0  0  0  0
 21 19  1  0  0  0  0
 22 24  1  0  0  0  0
 22 21  2  0  0  0  0
 23 22  1  0  0  0  0
 24 17  1  0  0  0  0
 25 15  2  0  0  0  0
 25 24  1  0  0  0  0
 27 26  1  0  0  0  0
 27 32  1  0  0  0  0
 28 29  2  0  0  0  0
 28 35  1  0  0  0  0
 30 36  1  0  0  0  0
 30 29  2  0  0  0  0
 31 30  1  0  0  0  0
 32 31  1  0  0  0  0
 32 33  2  0  0  0  0
 33 28  1  0  0  0  0
 35 34  1  0  0  0  0
 37 36  1  0  0  0  0
M  END
>  <minimizedAffinity>
-8.2717371

$$$$

 OpenBabel12271915423D

 37 41  0  0  1  0  0  0  0  0999 V2000
   24.9690  -11.1060   -1.6020 C   0  0  2  0  0  0  0  0  0  0  0  0
   24.9530  -12.5380   -1.6350 O   0  0  0  0  0  0  0  0  0  0  0  0
   23.9850  -13.3010   -1.0770 C   0  0  0  0  0  0  0  0  0  0  0  0
   24.1400  -14.4830   -0.9410 O   0  0  0  0  0  0  0  0  0  0  0  0
   22.7490  -12.6120   -0.6530 C   0  0  1  0  0  0  0  0  0  0  0  0
   22.5090  -11.2750   -0.8130 C   0  0  0  0  0  0  0  0  0  0  0  0
   21.5100  -10.5920   -0.5030 O   0  0  0  0  0  0  0  0  0  0  0  0
   23.6130  -10.4300   -1.4910 C   0  0  0  0  0  0  0  0  0  0  0  0
   25.7050  -10.6620   -2.9020 C   0  0  0  0  0  0  0  0  0  0  0  0
   26.0110   -9.1680   -2.9290 C   0  0  0  0  0  0  0  0  0  0  0  0
   25.2440   -8.5690   -4.0880 C   0  0  0  0  0  0  0  0  0  0  0  0
   24.8810   -9.7260   -5.0010 C   0  0  0  0  0  0  0  0  0  0  0  0
   24.8190  -10.9460   -4.1260 C   0  0  0  0  0  0  0  0  0  0  0  0
   21.7200  -13.5400   -0.0320 C   0  0  0  0  0  0  0  0  0  0  0  0
   20.5740  -14.0640   -0.9510 C   0  0  0  0  0  0  0  0  0  0  0  0
   20.6170  -15.3720   -1.5000 N   0  0  0  0  0  0  0  0  0  0  0  0
   19.4810  -15.4010   -2.2230 C   0  0  0  0  0  0  0  0  0  0  0  0
   18.9590  -16.4180   -3.0070 N   0  0  0  0  0  0  0  0  0  0  0  0
   17.8410  -16.2170   -3.6900 C   0  0  0  0  0  0  0  0  0  0  0  0
   17.2450  -17.2870   -4.5660 C   0  0  0  0  0  0  0  0  0  0  0  0
   17.1510  -14.9010   -3.6100 C   0  0  0  0  0  0  0  0  0  0  0  0
   17.6870  -13.9460   -2.8380 C   0  0  0  0  0  0  0  0  0  0  0  0
   17.0560  -12.5890   -2.7140 C   0  0  0  0  0  0  0  0  0  0  0  0
   18.8530  -14.1850   -2.1390 N   0  0  0  0  0  0  0  0  0  0  0  0
   19.6050  -13.3370   -1.3700 N   0  0  0  0  0  0  0  0  0  0  0  0
   25.8970  -10.5900   -0.4710 C   0  0  0  0  0  0  0  0  0  0  0  0
   26.8360  -11.6510    0.0520 C   0  0  0  0  0  0  0  0  0  0  0  0
   29.5020   -9.0830    0.4150 C   0  0  0  0  0  0  0  0  0  0  0  0
   30.5610   -9.7780    0.9590 N   0  0  0  0  0  0  0  0  0  0  0  0
   30.3760  -11.0970    1.2040 C   0  0  0  0  0  0  0  0  0  0  0  0
   29.2060  -11.7230    0.9180 C   0  0  0  0  0  0  0  0  0  0  0  0
   28.1150  -11.0090    0.3800 C   0  0  0  0  0  0  0  0  0  0  0  0
   28.3290   -9.6510    0.1350 C   0  0  0  0  0  0  0  0  0  0  0  0
   28.6940   -7.1050   -0.8150 C   0  0  0  0  0  0  0  0  0  0  0  0
   29.7200   -7.5900    0.1970 C   0  0  0  0  0  0  0  0  0  0  0  0
   31.5510  -11.8710    1.7800 C   0  0  0  0  0  0  0  0  0  0  0  0
   31.0630  -12.8700    2.8210 C   0  0  0  0  0  0  0  0  0  0  0  0
  1  8  1  0  0  0  0
  1 26  1  1  0  0  0
  2  1  1  0  0  0  0
  2  3  1  0  0  0  0
  3  4  2  0  0  0  0
  3  5  1  0  0  0  0
  5 14  1  6  0  0  0
  6  5  1  0  0  0  0
  6  7  2  0  0  0  0
  8  6  1  0  0  0  0
  9  1  1  0  0  0  0
 10  9  1  0  0  0  0
 11 10  1  0  0  0  0
 12 13  1  0  0  0  0
 12 11  1  0  0  0  0
 13  9  1  0  0  0  0
 15 14  1  0  0  0  0
 16 15  2  0  0  0  0
 17 24  1  0  0  0  0
 17 16  2  0  0  0  0
 18 17  2  0  0  0  0
 19 21  1  0  0  0  0
 19 18  2  0  0  0  0
 20 19  1  0  0  0  0
 21 22  2  0  0  0  0
 22 23  1  0  0  0  0
 22 24  1  0  0  0  0
 24 25  1  0  0  0  0
 25 15  2  0  0  0  0
 26 27  1  0  0  0  0
 27 32  1  0  0  0  0
 28 29  2  0  0  0  0
 29 30  2  0  0  0  0
 30 36  1  0  0  0  0
 31 30  1  0  0  0  0
 32 31  1  0  0  0  0
 33 32  2  0  0  0  0
 33 28  1  0  0  0  0
 34 35  1  0  0  0  0
 35 28  1  0  0  0  0
 36 37  1  0  0  0  0
M  END
>  <minimizedAffinity>
-8.14835072

$$$$

 OpenBabel12271915423D

 37 41  0  0  1  0  0  0  0  0999 V2000
   19.8350  -13.6440   -2.1370 C   0  0  2  0  0  0  0  0  0  0  0  0
   19.3600  -12.6000   -1.2790 O   0  0  0  0  0  0  0  0  0  0  0  0
   19.4850  -11.2790   -1.5480 C   0  0  0  0  0  0  0  0  0  0  0  0
   19.2740  -10.4600   -0.6970 O   0  0  0  0  0  0  0  0  0  0  0  0
   19.8850  -10.9090   -2.9210 C   0  0  1  0  0  0  0  0  0  0  0  0
   20.1060  -11.8010   -3.9340 C   0  0  0  0  0  0  0  0  0  0  0  0
   20.4390  -11.6060   -5.1220 O   0  0  0  0  0  0  0  0  0  0  0  0
   19.9180  -13.3030   -3.6140 C   0  0  0  0  0  0  0  0  0  0  0  0
   18.8790  -14.8530   -1.8990 C   0  0  0  0  0  0  0  0  0  0  0  0
   19.1300  -16.0050   -2.8650 C   0  0  0  0  0  0  0  0  0  0  0  0
   17.8800  -16.1790   -3.7000 C   0  0  0  0  0  0  0  0  0  0  0  0
   16.7630  -15.4830   -2.9430 C   0  0  0  0  0  0  0  0  0  0  0  0
   17.4220  -14.4140   -2.1170 C   0  0  0  0  0  0  0  0  0  0  0  0
   20.0070   -9.4120   -3.1330 C   0  0  0  0  0  0  0  0  0  0  0  0
   21.4440   -8.8070   -3.2020 C   0  0  0  0  0  0  0  0  0  0  0  0
   21.9470   -8.2510   -4.4060 N   0  0  0  0  0  0  0  0  0  0  0  0
   23.1870   -7.8790   -4.0370 C   0  0  0  0  0  0  0  0  0  0  0  0
   24.1870   -7.2750   -4.7840 N   0  0  0  0  0  0  0  0  0  0  0  0
   25.3710   -7.0430   -4.2350 C   0  0  0  0  0  0  0  0  0  0  0  0
   26.4920   -6.4040   -5.0120 C   0  0  0  0  0  0  0  0  0  0  0  0
   25.6200   -7.4290   -2.8200 C   0  0  0  0  0  0  0  0  0  0  0  0
   24.6260   -8.0070   -2.1330 C   0  0  0  0  0  0  0  0  0  0  0  0
   24.8020   -8.4350   -0.7040 C   0  0  0  0  0  0  0  0  0  0  0  0
   23.4030   -8.2370   -2.7310 N   0  0  0  0  0  0  0  0  0  0  0  0
   22.2950   -8.8790   -2.2460 N   0  0  0  0  0  0  0  0  0  0  0  0
   21.2090  -14.1760   -1.6510 C   0  0  0  0  0  0  0  0  0  0  0  0
   21.7830  -13.3720   -0.5080 C   0  0  0  0  0  0  0  0  0  0  0  0
   24.3770  -11.8020   -2.6600 C   0  0  0  0  0  0  0  0  0  0  0  0
   25.4760  -11.6960   -1.8330 N   0  0  0  0  0  0  0  0  0  0  0  0
   25.3410  -12.1440   -0.5630 C   0  0  0  0  0  0  0  0  0  0  0  0
   24.1810  -12.6920   -0.1140 C   0  0  0  0  0  0  0  0  0  0  0  0
   23.0510  -12.7830   -0.9540 C   0  0  0  0  0  0  0  0  0  0  0  0
   23.2140  -12.3140   -2.2590 C   0  0  0  0  0  0  0  0  0  0  0  0
   25.9830  -10.7880   -4.2320 C   0  0  0  0  0  0  0  0  0  0  0  0
   24.5420  -11.2420   -4.0690 C   0  0  0  0  0  0  0  0  0  0  0  0
   26.5570  -12.0520    0.3430 C   0  0  0  0  0  0  0  0  0  0  0  0
   27.4550  -10.9040   -0.0960 C   0  0  0  0  0  0  0  0  0  0  0  0
  1  9  1  0  0  0  0
  1 26  1  1  0  0  0
  1  2  1  0  0  0  0
  3  2  1  0  0  0  0
  3  4  2  0  0  0  0
  5 14  1  6  0  0  0
  5  3  1  0  0  0  0
  6  8  1  0  0  0  0
  6  5  1  0  0  0  0
  7  6  2  0  0  0  0
  8  1  1  0  0  0  0
 10  9  1  0  0  0  0
 11 12  1  0  0  0  0
 11 10  1  0  0  0  0
 12 13  1  0  0  0  0
 13  9  1  0  0  0  0
 15 14  1  0  0  0  0
 15 25  2  0  0  0  0
 16 17  2  0  0  0  0
 16 15  2  0  0  0  0
 17 24  1  0  0  0  0
 18 19  2  0  0  0  0
 18 17  2  0  0  0  0
 19 21  1  0  0  0  0
 20 19  1  0  0  0  0
 21 22  2  0  0  0  0
 22 23  1  0  0  0  0
 24 25  1  0  0  0  0
 24 22  1  0  0  0  0
 26 27  1  0  0  0  0
 28 33  1  0  0  0  0
 28 29  2  0  0  0  0
 29 30  2  0  0  0  0
 30 31  1  0  0  0  0
 30 36  1  0  0  0  0
 32 27  1  0  0  0  0
 32 31  1  0  0  0  0
 33 32  2  0  0  0  0
 34 35  1  0  0  0  0
 35 28  1  0  0  0  0
 37 36  1  0  0  0  0
M  END
>  <minimizedAffinity>
-8.13740826

$$$$

 OpenBabel12271915423D

 37 41  0  0  1  0  0  0  0  0999 V2000
   19.8620  -13.5490   -2.0920 C   0  0  2  0  0  0  0  0  0  0  0  0
   19.3070  -12.5100   -1.2780 O   0  0  0  0  0  0  0  0  0  0  0  0
   19.3830  -11.1910   -1.5720 C   0  0  0  0  0  0  0  0  0  0  0  0
   19.1020  -10.3650   -0.7490 O   0  0  0  0  0  0  0  0  0  0  0  0
   19.8230  -10.8320   -2.9360 C   0  0  1  0  0  0  0  0  0  0  0  0
   20.1250  -11.7340   -3.9190 C   0  0  0  0  0  0  0  0  0  0  0  0
   20.4970  -11.5490   -5.0970 O   0  0  0  0  0  0  0  0  0  0  0  0
   19.9910  -13.2360   -3.5730 C   0  0  0  0  0  0  0  0  0  0  0  0
   18.9520  -14.7940   -1.8660 C   0  0  0  0  0  0  0  0  0  0  0  0
   19.3400  -15.9800   -2.7430 C   0  0  0  0  0  0  0  0  0  0  0  0
   18.1740  -16.2640   -3.6650 C   0  0  0  0  0  0  0  0  0  0  0  0
   16.9640  -15.5920   -3.0400 C   0  0  0  0  0  0  0  0  0  0  0  0
   17.4970  -14.4480   -2.2240 C   0  0  0  0  0  0  0  0  0  0  0  0
   19.8870   -9.3350   -3.1770 C   0  0  0  0  0  0  0  0  0  0  0  0
   18.7940   -8.7050   -4.0950 C   0  0  0  0  0  0  0  0  0  0  0  0
   17.4250   -8.7300   -3.7240 N   0  0  0  0  0  0  0  0  0  0  0  0
   16.8470   -8.1180   -4.7760 C   0  0  0  0  0  0  0  0  0  0  0  0
   15.5090   -7.8440   -5.0120 N   0  0  0  0  0  0  0  0  0  0  0  0
   15.1430   -7.2770   -6.1530 C   0  0  0  0  0  0  0  0  0  0  0  0
   13.7000   -6.9740   -6.4600 C   0  0  0  0  0  0  0  0  0  0  0  0
   16.1710   -6.9370   -7.1740 C   0  0  0  0  0  0  0  0  0  0  0  0
   17.4540   -7.2160   -6.9040 C   0  0  0  0  0  0  0  0  0  0  0  0
   18.5480   -6.9130   -7.8880 C   0  0  0  0  0  0  0  0  0  0  0  0
   17.8040   -7.8070   -5.7070 N   0  0  0  0  0  0  0  0  0  0  0  0
   19.0250   -8.2470   -5.2690 N   0  0  0  0  0  0  0  0  0  0  0  0
   21.2370  -14.0080   -1.5410 C   0  0  0  0  0  0  0  0  0  0  0  0
   21.8020  -13.0660   -0.5030 C   0  0  0  0  0  0  0  0  0  0  0  0
   25.3730  -12.0390   -0.6540 C   0  0  0  0  0  0  0  0  0  0  0  0
   25.5170  -11.5250   -1.9260 N   0  0  0  0  0  0  0  0  0  0  0  0
   24.4230  -11.5280   -2.7230 C   0  0  0  0  0  0  0  0  0  0  0  0
   23.2250  -12.0040   -2.2960 C   0  0  0  0  0  0  0  0  0  0  0  0
   23.0810  -12.5480   -1.0030 C   0  0  0  0  0  0  0  0  0  0  0  0
   24.2220  -12.5330   -0.1980 C   0  0  0  0  0  0  0  0  0  0  0  0
   27.3080  -10.7120    0.1000 C   0  0  0  0  0  0  0  0  0  0  0  0
   26.6330  -12.0700    0.2040 C   0  0  0  0  0  0  0  0  0  0  0  0
   24.5730  -10.9380   -4.1160 C   0  0  0  0  0  0  0  0  0  0  0  0
   23.5080   -9.8760   -4.3540 C   0  0  0  0  0  0  0  0  0  0  0  0
  1  9  1  0  0  0  0
  1 26  1  1  0  0  0
  1  2  1  0  0  0  0
  3  2  1  0  0  0  0
  3  4  2  0  0  0  0
  5 14  1  6  0  0  0
  5  3  1  0  0  0  0
  6  8  1  0  0  0  0
  6  5  1  0  0  0  0
  7  6  2  0  0  0  0
  8  1  1  0  0  0  0
 10  9  1  0  0  0  0
 11 12  1  0  0  0  0
 11 10  1  0  0  0  0
 12 13  1  0  0  0  0
 13  9  1  0  0  0  0
 15 16  2  0  0  0  0
 15 14  1  0  0  0  0
 17 16  2  0  0  0  0
 18 17  2  0  0  0  0
 19 18  2  0  0  0  0
 20 19  1  0  0  0  0
 21 22  2  0  0  0  0
 21 19  1  0  0  0  0
 22 24  1  0  0  0  0
 23 22  1  0  0  0  0
 24 25  1  0  0  0  0
 24 17  1  0  0  0  0
 25 15  2  0  0  0  0
 26 27  1  0  0  0  0
 28 33  1  0  0  0  0
 28 35  1  0  0  0  0
 29 28  2  0  0  0  0
 30 31  1  0  0  0  0
 30 29  2  0  0  0  0
 31 32  1  0  0  0  0
 32 27  1  0  0  0  0
 32 33  2  0  0  0  0
 34 35  1  0  0  0  0
 36 30  1  0  0  0  0
 37 36  1  0  0  0  0
M  END
>  <minimizedAffinity>
-7.81459141

$$$$

 OpenBabel12271915423D

 37 41  0  0  1  0  0  0  0  0999 V2000
   20.1490  -12.9880   -1.7860 C   0  0  2  0  0  0  0  0  0  0  0  0
   19.3940  -11.9990   -1.0770 O   0  0  0  0  0  0  0  0  0  0  0  0
   19.2790  -10.7080   -1.4640 C   0  0  0  0  0  0  0  0  0  0  0  0
   18.8270   -9.8840   -0.7180 O   0  0  0  0  0  0  0  0  0  0  0  0
   19.7300  -10.3750   -2.8310 C   0  0  1  0  0  0  0  0  0  0  0  0
   20.2220  -11.2800   -3.7310 C   0  0  0  0  0  0  0  0  0  0  0  0
   20.6230  -11.1170   -4.9020 O   0  0  0  0  0  0  0  0  0  0  0  0
   20.3070  -12.7580   -3.2790 C   0  0  0  0  0  0  0  0  0  0  0  0
   19.4350  -14.3450   -1.5070 C   0  0  0  0  0  0  0  0  0  0  0  0
   20.0610  -15.5110   -2.2640 C   0  0  0  0  0  0  0  0  0  0  0  0
   19.0160  -16.0470   -3.2190 C   0  0  0  0  0  0  0  0  0  0  0  0
   17.6780  -15.5380   -2.7130 C   0  0  0  0  0  0  0  0  0  0  0  0
   17.9700  -14.2670   -1.9660 C   0  0  0  0  0  0  0  0  0  0  0  0
   19.5700   -8.9070   -3.1800 C   0  0  0  0  0  0  0  0  0  0  0  0
   20.8530   -8.0180   -3.1670 C   0  0  0  0  0  0  0  0  0  0  0  0
   20.9760   -6.8970   -4.0260 N   0  0  0  0  0  0  0  0  0  0  0  0
   22.2050   -6.4460   -3.7120 C   0  0  0  0  0  0  0  0  0  0  0  0
   22.9070   -5.3660   -4.2240 N   0  0  0  0  0  0  0  0  0  0  0  0
   24.1450   -5.1280   -3.8110 C   0  0  0  0  0  0  0  0  0  0  0  0
   24.9510   -3.9750   -4.3500 C   0  0  0  0  0  0  0  0  0  0  0  0
   24.7720   -6.0190   -2.7990 C   0  0  0  0  0  0  0  0  0  0  0  0
   24.0570   -7.0500   -2.3270 C   0  0  0  0  0  0  0  0  0  0  0  0
   24.6240   -8.0010   -1.3120 C   0  0  0  0  0  0  0  0  0  0  0  0
   22.7710   -7.2730   -2.7760 N   0  0  0  0  0  0  0  0  0  0  0  0
   21.9080   -8.2990   -2.4940 N   0  0  0  0  0  0  0  0  0  0  0  0
   21.5480  -13.1820   -1.1440 C   0  0  0  0  0  0  0  0  0  0  0  0
   22.1060  -11.9110   -0.5480 C   0  0  0  0  0  0  0  0  0  0  0  0
   25.7880  -11.4550   -0.7880 C   0  0  0  0  0  0  0  0  0  0  0  0
   26.0110  -11.2490   -2.1340 N   0  0  0  0  0  0  0  0  0  0  0  0
   24.9310  -11.2670   -2.9500 C   0  0  0  0  0  0  0  0  0  0  0  0
   23.6740  -11.4670   -2.4740 C   0  0  0  0  0  0  0  0  0  0  0  0
   23.4480  -11.6970   -1.1010 C   0  0  0  0  0  0  0  0  0  0  0  0
   24.5770  -11.6730   -0.2780 C   0  0  0  0  0  0  0  0  0  0  0  0
   27.6140  -10.0780    0.1320 C   0  0  0  0  0  0  0  0  0  0  0  0
   27.0270  -11.4800    0.1000 C   0  0  0  0  0  0  0  0  0  0  0  0
   25.1700  -11.0150   -4.4300 C   0  0  0  0  0  0  0  0  0  0  0  0
   24.4480   -9.7490   -4.8700 C   0  0  0  0  0  0  0  0  0  0  0  0
  1  9  1  0  0  0  0
  1 26  1  1  0  0  0
  1  2  1  0  0  0  0
  3  2  1  0  0  0  0
  3  4  2  0  0  0  0
  5 14  1  6  0  0  0
  5  3  1  0  0  0  0
  6  8  1  0  0  0  0
  6  5  1  0  0  0  0
  7  6  2  0  0  0  0
  8  1  1  0  0  0  0
 10  9  1  0  0  0  0
 11 12  1  0  0  0  0
 11 10  1  0  0  0  0
 12 13  1  0  0  0  0
 13  9  1  0  0  0  0
 14 15  1  0  0  0  0
 15 25  2  0  0  0  0
 16 17  2  0  0  0  0
 16 15  2  0  0  0  0
 17 24  1  0  0  0  0
 18 19  2  0  0  0  0
 18 17  2  0  0  0  0
 19 21  1  0  0  0  0
 20 19  1  0  0  0  0
 21 22  2  0  0  0  0
 22 23  1  0  0  0  0
 24 25  1  0  0  0  0
 24 22  1  0  0  0  0
 26 27  1  0  0  0  0
 28 33  1  0  0  0  0
 28 35  1  0  0  0  0
 29 28  2  0  0  0  0
 30 31  1  0  0  0  0
 30 29  2  0  0  0  0
 31 32  1  0  0  0  0
 32 27  1  0  0  0  0
 32 33  2  0  0  0  0
 35 34  1  0  0  0  0
 36 30  1  0  0  0  0
 37 36  1  0  0  0  0
M  END
>  <minimizedAffinity>
-7.81362867

$$$$

 OpenBabel12271915423D

 37 41  0  0  1  0  0  0  0  0999 V2000
   26.9020  -10.0020   -1.4910 C   0  0  2  0  0  0  0  0  0  0  0  0
   26.8020  -10.8040   -2.6730 O   0  0  0  0  0  0  0  0  0  0  0  0
   25.8980  -10.5970   -3.6580 C   0  0  0  0  0  0  0  0  0  0  0  0
   25.7160  -11.4270   -4.5050 O   0  0  0  0  0  0  0  0  0  0  0  0
   25.1630   -9.3160   -3.6350 C   0  0  1  0  0  0  0  0  0  0  0  0
   25.3550   -8.3250   -2.7130 C   0  0  0  0  0  0  0  0  0  0  0  0
   24.8030   -7.2110   -2.5990 O   0  0  0  0  0  0  0  0  0  0  0  0
   26.4230   -8.5670   -1.6200 C   0  0  0  0  0  0  0  0  0  0  0  0
   28.4040  -10.0500   -1.0740 C   0  0  0  0  0  0  0  0  0  0  0  0
   28.5980  -10.1490    0.4350 C   0  0  0  0  0  0  0  0  0  0  0  0
   29.3170   -8.8960    0.8840 C   0  0  0  0  0  0  0  0  0  0  0  0
   29.9520   -8.3010   -0.3610 C   0  0  0  0  0  0  0  0  0  0  0  0
   29.1090   -8.7580   -1.5180 C   0  0  0  0  0  0  0  0  0  0  0  0
   24.1660   -9.1690   -4.7700 C   0  0  0  0  0  0  0  0  0  0  0  0
   22.6570   -9.3820   -4.4360 C   0  0  0  0  0  0  0  0  0  0  0  0
   21.7930   -8.2790   -4.2170 N   0  0  0  0  0  0  0  0  0  0  0  0
   20.6260   -8.8950   -3.9470 C   0  0  0  0  0  0  0  0  0  0  0  0
   19.3900   -8.3490   -3.6390 N   0  0  0  0  0  0  0  0  0  0  0  0
   18.3710   -9.1470   -3.3470 C   0  0  0  0  0  0  0  0  0  0  0  0
   17.0140   -8.5990   -2.9900 C   0  0  0  0  0  0  0  0  0  0  0  0
   18.5600  -10.6220   -3.3540 C   0  0  0  0  0  0  0  0  0  0  0  0
   19.7710  -11.1090   -3.6620 C   0  0  0  0  0  0  0  0  0  0  0  0
   20.0430  -12.5850   -3.6800 C   0  0  0  0  0  0  0  0  0  0  0  0
   20.8130  -10.2540   -3.9610 N   0  0  0  0  0  0  0  0  0  0  0  0
   22.1290  -10.5300   -4.2160 N   0  0  0  0  0  0  0  0  0  0  0  0
   26.1800  -10.6830   -0.2990 C   0  0  0  0  0  0  0  0  0  0  0  0
   25.6960  -12.0780   -0.6190 C   0  0  0  0  0  0  0  0  0  0  0  0
   22.1680  -13.2500   -0.5850 C   0  0  0  0  0  0  0  0  0  0  0  0
   21.4310  -12.0850   -0.5400 N   0  0  0  0  0  0  0  0  0  0  0  0
   22.1170  -10.9190   -0.5160 C   0  0  0  0  0  0  0  0  0  0  0  0
   23.4750  -10.8830   -0.5500 C   0  0  0  0  0  0  0  0  0  0  0  0
   24.2300  -12.0750   -0.5770 C   0  0  0  0  0  0  0  0  0  0  0  0
   23.5000  -13.2650   -0.6010 C   0  0  0  0  0  0  0  0  0  0  0  0
   19.9370  -14.2160   -0.1780 C   0  0  0  0  0  0  0  0  0  0  0  0
   21.3700  -14.5490   -0.5590 C   0  0  0  0  0  0  0  0  0  0  0  0
   21.3080   -9.6320   -0.4920 C   0  0  0  0  0  0  0  0  0  0  0  0
   22.2280   -8.4280   -0.6430 C   0  0  0  0  0  0  0  0  0  0  0  0
  1  9  1  0  0  0  0
  1 26  1  1  0  0  0
  2  1  1  0  0  0  0
  3  5  1  0  0  0  0
  3  2  1  0  0  0  0
  4  3  2  0  0  0  0
  5 14  1  6  0  0  0
  5  6  1  0  0  0  0
  6  7  2  0  0  0  0
  6  8  1  0  0  0  0
  8  1  1  0  0  0  0
  9 10  1  0  0  0  0
 10 11  1  0  0  0  0
 12 11  1  0  0  0  0
 13  9  1  0  0  0  0
 13 12  1  0  0  0  0
 14 15  1  0  0  0  0
 15 16  2  0  0  0  0
 15 25  2  0  0  0  0
 16 17  2  0  0  0  0
 17 18  2  0  0  0  0
 18 19  2  0  0  0  0
 19 20  1  0  0  0  0
 21 19  1  0  0  0  0
 22 21  2  0  0  0  0
 23 22  1  0  0  0  0
 24 17  1  0  0  0  0
 24 22  1  0  0  0  0
 25 24  1  0  0  0  0
 27 32  1  0  0  0  0
 27 26  1  0  0  0  0
 28 35  1  0  0  0  0
 28 29  2  0  0  0  0
 29 30  2  0  0  0  0
 30 36  1  0  0  0  0
 31 30  1  0  0  0  0
 32 31  1  0  0  0  0
 33 28  1  0  0  0  0
 33 32  2  0  0  0  0
 35 34  1  0  0  0  0
 37 36  1  0  0  0  0
M  END
>  <minimizedAffinity>
-7.69445801

$$$$

 OpenBabel12271915423D

 37 41  0  0  1  0  0  0  0  0999 V2000
   21.3350  -10.1340   -3.8770 C   0  0  2  0  0  0  0  0  0  0  0  0
   21.1510   -9.9550   -2.4680 O   0  0  0  0  0  0  0  0  0  0  0  0
   21.9530  -10.4950   -1.5220 C   0  0  0  0  0  0  0  0  0  0  0  0
   21.6210  -10.4970   -0.3690 O   0  0  0  0  0  0  0  0  0  0  0  0
   23.2350  -11.0710   -1.9770 C   0  0  1  0  0  0  0  0  0  0  0  0
   23.6740  -11.0660   -3.2730 C   0  0  0  0  0  0  0  0  0  0  0  0
   24.7290  -11.5120   -3.7680 O   0  0  0  0  0  0  0  0  0  0  0  0
   22.7590  -10.4060   -4.3310 C   0  0  0  0  0  0  0  0  0  0  0  0
   20.7770   -8.8400   -4.5440 C   0  0  0  0  0  0  0  0  0  0  0  0
   19.6840   -8.1720   -3.7190 C   0  0  0  0  0  0  0  0  0  0  0  0
   18.4110   -8.2090   -4.5360 C   0  0  0  0  0  0  0  0  0  0  0  0
   18.8350   -8.4530   -5.9730 C   0  0  0  0  0  0  0  0  0  0  0  0
   20.1460   -9.1850   -5.9030 C   0  0  0  0  0  0  0  0  0  0  0  0
   24.0670  -11.6600   -0.8540 C   0  0  0  0  0  0  0  0  0  0  0  0
   25.3970  -10.9340   -0.4830 C   0  0  0  0  0  0  0  0  0  0  0  0
   25.5480   -9.5370   -0.6840 N   0  0  0  0  0  0  0  0  0  0  0  0
   26.8120   -9.3370   -0.2650 C   0  0  0  0  0  0  0  0  0  0  0  0
   27.5530   -8.1660   -0.2210 N   0  0  0  0  0  0  0  0  0  0  0  0
   28.8170   -8.2000    0.1790 C   0  0  0  0  0  0  0  0  0  0  0  0
   29.6640   -6.9560    0.2290 C   0  0  0  0  0  0  0  0  0  0  0  0
   29.4320   -9.4930    0.5810 C   0  0  0  0  0  0  0  0  0  0  0  0
   28.6800  -10.6020    0.5270 C   0  0  0  0  0  0  0  0  0  0  0  0
   29.2320  -11.9460    0.9050 C   0  0  0  0  0  0  0  0  0  0  0  0
   27.3670  -10.5360    0.1050 N   0  0  0  0  0  0  0  0  0  0  0  0
   26.4600  -11.5400   -0.1020 N   0  0  0  0  0  0  0  0  0  0  0  0
   20.3990  -11.2460   -4.4190 C   0  0  0  0  0  0  0  0  0  0  0  0
   19.3150  -11.6340   -3.4420 C   0  0  0  0  0  0  0  0  0  0  0  0
   20.6170  -15.0020   -2.5550 C   0  0  0  0  0  0  0  0  0  0  0  0
   19.5690  -15.8500   -2.8430 N   0  0  0  0  0  0  0  0  0  0  0  0
   18.4350  -15.2920   -3.3270 C   0  0  0  0  0  0  0  0  0  0  0  0
   18.3260  -13.9540   -3.5370 C   0  0  0  0  0  0  0  0  0  0  0  0
   19.3910  -13.0830   -3.2240 C   0  0  0  0  0  0  0  0  0  0  0  0
   20.5510  -13.6820   -2.7270 C   0  0  0  0  0  0  0  0  0  0  0  0
   22.2070  -14.9270   -0.6730 C   0  0  0  0  0  0  0  0  0  0  0  0
   21.8630  -15.6520   -1.9640 C   0  0  0  0  0  0  0  0  0  0  0  0
   17.2860  -16.2270   -3.6700 C   0  0  0  0  0  0  0  0  0  0  0  0
   17.8050  -17.4420   -4.4260 C   0  0  0  0  0  0  0  0  0  0  0  0
  1 26  1  6  0  0  0
  1  2  1  0  0  0  0
  2  3  1  0  0  0  0
  3  4  2  0  0  0  0
  5  3  1  0  0  0  0
  5 14  1  1  0  0  0
  6  5  1  0  0  0  0
  7  6  2  0  0  0  0
  8  1  1  0  0  0  0
  8  6  1  0  0  0  0
  9  1  1  0  0  0  0
  9 10  1  0  0  0  0
 11 10  1  0  0  0  0
 12 13  1  0  0  0  0
 12 11  1  0  0  0  0
 13  9  1  0  0  0  0
 14 15  1  0  0  0  0
 15 25  2  0  0  0  0
 16 15  2  0  0  0  0
 16 17  2  0  0  0  0
 17 18  2  0  0  0  0
 17 24  1  0  0  0  0
 18 19  2  0  0  0  0
 19 20  1  0  0  0  0
 19 21  1  0  0  0  0
 22 21  2  0  0  0  0
 22 23  1  0  0  0  0
 24 22  1  0  0  0  0
 25 24  1  0  0  0  0
 26 27  1  0  0  0  0
 27 32  1  0  0  0  0
 28 35  1  0  0  0  0
 29 28  2  0  0  0  0
 30 29  2  0  0  0  0
 31 30  1  0  0  0  0
 31 32  1  0  0  0  0
 32 33  2  0  0  0  0
 33 28  1  0  0  0  0
 35 34  1  0  0  0  0
 36 30  1  0  0  0  0
 37 36  1  0  0  0  0
M  END
>  <minimizedAffinity>
-7.64959049

$$$$
