
 OpenBabel12271915423D

 37 41  0  0  1  0  0  0  0  0999 V2000
   18.7020  -14.6430   -2.7980 C   0  0  2  0  0  0  0  0  0  0  0  0
   19.9990  -14.8840   -3.4100 O   0  0  0  0  0  0  0  0  0  0  0  0
   21.1740  -15.0830   -2.7540 C   0  0  0  0  0  0  0  0  0  0  0  0
   22.1500  -15.4400   -3.4040 O   0  0  0  0  0  0  0  0  0  0  0  0
   21.1700  -14.8710   -1.3070 C   0  0  1  0  0  0  0  0  0  0  0  0
   20.0760  -14.5210   -0.5460 C   0  0  0  0  0  0  0  0  0  0  0  0
   19.9730  -14.3620    0.6730 O   0  0  0  0  0  0  0  0  0  0  0  0
   18.7620  -14.2880   -1.2790 C   0  0  0  0  0  0  0  0  0  0  0  0
   17.9070  -15.9430   -2.9780 C   0  0  0  0  0  0  0  0  0  0  0  0
   16.3760  -15.8100   -3.2250 C   0  0  0  0  0  0  0  0  0  0  0  0
   16.0300  -16.8790   -4.2810 C   0  0  0  0  0  0  0  0  0  0  0  0
   17.2680  -17.7570   -4.3150 C   0  0  0  0  0  0  0  0  0  0  0  0
   18.3570  -16.7300   -4.2240 C   0  0  0  0  0  0  0  0  0  0  0  0
   22.4690  -15.0990   -0.5550 C   0  0  0  0  0  0  0  0  0  0  0  0
   23.3490  -13.8600   -0.4810 C   0  0  0  0  0  0  0  0  0  0  0  0
   24.7220  -13.8720   -0.5560 N   0  0  0  0  0  0  0  0  0  0  0  0
   25.0820  -12.6120   -0.4470 C   0  0  0  0  0  0  0  0  0  0  0  0
   26.3310  -12.0130   -0.4530 N   0  0  0  0  0  0  0  0  0  0  0  0
   26.4170  -10.7460   -0.2910 C   0  0  0  0  0  0  0  0  0  0  0  0
   27.7960  -10.0890   -0.2840 C   0  0  0  0  0  0  0  0  0  0  0  0
   25.2230   -9.8410   -0.1090 C   0  0  0  0  0  0  0  0  0  0  0  0
   24.0350  -10.4350   -0.1070 C   0  0  0  0  0  0  0  0  0  0  0  0
   22.7420   -9.6660    0.0740 C   0  0  0  0  0  0  0  0  0  0  0  0
   23.9330  -11.8460   -0.2790 N   0  0  0  0  0  0  0  0  0  0  0  0
   22.8450  -12.6100   -0.2890 N   0  0  0  0  0  0  0  0  0  0  0  0
   18.1660  -13.4450   -3.6370 C   0  0  0  0  0  0  0  0  0  0  0  0
   17.9640  -12.0260   -3.0570 C   0  0  0  0  0  0  0  0  0  0  0  0
   19.9840   -8.8150   -2.8710 C   0  0  0  0  0  0  0  0  0  0  0  0
   21.2420   -9.2560   -3.0830 N   0  0  0  0  0  0  0  0  0  0  0  0
   21.4410  -10.5560   -3.3630 C   0  0  0  0  0  0  0  0  0  0  0  0
   20.3950  -11.4960   -3.3830 C   0  0  0  0  0  0  0  0  0  0  0  0
   19.1040  -11.0470   -3.1300 C   0  0  0  0  0  0  0  0  0  0  0  0
   18.8960   -9.6970   -2.8860 C   0  0  0  0  0  0  0  0  0  0  0  0
   21.0950   -6.5950   -2.4630 C   0  0  0  0  0  0  0  0  0  0  0  0
   19.7660   -7.3470   -2.5770 C   0  0  0  0  0  0  0  0  0  0  0  0
   22.8490  -11.0360   -3.6190 C   0  0  0  0  0  0  0  0  0  0  0  0
   23.7850   -9.8530   -3.8230 C   0  0  0  0  0  0  0  0  0  0  0  0
  1 26  1  6  0  0  0
  1  8  1  0  0  0  0
  2  1  1  0  0  0  0
  2  3  1  0  0  0  0
  3  5  1  0  0  0  0
  4  3  2  0  0  0  0
  5 14  1  1  0  0  0
  5  6  1  0  0  0  0
  6  7  2  0  0  0  0
  8  6  1  0  0  0  0
  9  1  1  0  0  0  0
 10  9  1  0  0  0  0
 11 10  1  0  0  0  0
 12 11  1  0  0  0  0
 12 13  1  0  0  0  0
 13  9  1  0  0  0  0
 14 15  1  0  0  0  0
 15 25  2  0  0  0  0
 16 15  2  0  0  0  0
 16 17  2  0  0  0  0
 17 24  1  0  0  0  0
 18 17  2  0  0  0  0
 18 19  2  0  0  0  0
 19 20  1  0  0  0  0
 19 21  1  0  0  0  0
 21 22  2  0  0  0  0
 22 23  1  0  0  0  0
 24 22  1  0  0  0  0
 25 24  1  0  0  0  0
 26 27  1  0  0  0  0
 28 35  1  0  0  0  0
 29 28  2  0  0  0  0
 30 29  2  0  0  0  0
 31 30  1  0  0  0  0
 31 32  1  0  0  0  0
 32 27  1  0  0  0  0
 32 33  2  0  0  0  0
 33 28  1  0  0  0  0
 35 34  1  0  0  0  0
 36 30  1  0  0  0  0
 37 36  1  0  0  0  0
M  END
>  <minimizedAffinity>
-8.84232426

$$$$

 OpenBabel12271915423D

 37 41  0  0  1  0  0  0  0  0999 V2000
   19.5180  -14.9250   -2.6500 C   0  0  2  0  0  0  0  0  0  0  0  0
   19.6040  -14.6480   -1.2250 O   0  0  0  0  0  0  0  0  0  0  0  0
   19.2140  -13.5020   -0.6030 C   0  0  0  0  0  0  0  0  0  0  0  0
   19.1940  -13.4840    0.6240 O   0  0  0  0  0  0  0  0  0  0  0  0
   18.8270  -12.3810   -1.4580 C   0  0  1  0  0  0  0  0  0  0  0  0
   18.7910  -12.3930   -2.8350 C   0  0  0  0  0  0  0  0  0  0  0  0
   18.4420  -11.5150   -3.6290 O   0  0  0  0  0  0  0  0  0  0  0  0
   19.2360  -13.6700   -3.5340 C   0  0  0  0  0  0  0  0  0  0  0  0
   18.3650  -15.9220   -2.8120 C   0  0  0  0  0  0  0  0  0  0  0  0
   16.9190  -15.3440   -2.8010 C   0  0  0  0  0  0  0  0  0  0  0  0
   16.1460  -16.1350   -3.8750 C   0  0  0  0  0  0  0  0  0  0  0  0
   17.0610  -17.3070   -4.1790 C   0  0  0  0  0  0  0  0  0  0  0  0
   18.4030  -16.6390   -4.1750 C   0  0  0  0  0  0  0  0  0  0  0  0
   18.3780  -11.0990   -0.7820 C   0  0  0  0  0  0  0  0  0  0  0  0
   19.3370   -9.9360   -0.9950 C   0  0  0  0  0  0  0  0  0  0  0  0
   19.0050   -8.7560   -1.6170 N   0  0  0  0  0  0  0  0  0  0  0  0
   20.1060   -8.0370   -1.5960 C   0  0  0  0  0  0  0  0  0  0  0  0
   20.3780   -6.7650   -2.0720 N   0  0  0  0  0  0  0  0  0  0  0  0
   21.5640   -6.2950   -1.9590 C   0  0  0  0  0  0  0  0  0  0  0  0
   21.8660   -4.8980   -2.4970 C   0  0  0  0  0  0  0  0  0  0  0  0
   22.7030   -7.0430   -1.3100 C   0  0  0  0  0  0  0  0  0  0  0  0
   22.4210   -8.2610   -0.8600 C   0  0  0  0  0  0  0  0  0  0  0  0
   23.4580   -9.1410   -0.1930 C   0  0  0  0  0  0  0  0  0  0  0  0
   21.1050   -8.7910   -0.9900 N   0  0  0  0  0  0  0  0  0  0  0  0
   20.6440   -9.9820   -0.6190 N   0  0  0  0  0  0  0  0  0  0  0  0
   20.9260  -15.5220   -2.9490 C   0  0  0  0  0  0  0  0  0  0  0  0
   22.0930  -15.4910   -1.9370 C   0  0  0  0  0  0  0  0  0  0  0  0
   24.7980  -13.0290   -0.9120 C   0  0  0  0  0  0  0  0  0  0  0  0
   24.5850  -12.0000   -1.7600 N   0  0  0  0  0  0  0  0  0  0  0  0
   23.5370  -12.0520   -2.6020 C   0  0  0  0  0  0  0  0  0  0  0  0
   22.6840  -13.1680   -2.6810 C   0  0  0  0  0  0  0  0  0  0  0  0
   22.9250  -14.2410   -1.8320 C   0  0  0  0  0  0  0  0  0  0  0  0
   23.9790  -14.1650   -0.9330 C   0  0  0  0  0  0  0  0  0  0  0  0
   26.6400  -11.5790    0.0010 C   0  0  0  0  0  0  0  0  0  0  0  0
   25.9670  -12.9530    0.0460 C   0  0  0  0  0  0  0  0  0  0  0  0
   23.2940  -10.8900   -3.5320 C   0  0  0  0  0  0  0  0  0  0  0  0
   21.8220  -10.8130   -3.9160 C   0  0  0  0  0  0  0  0  0  0  0  0
  1 26  1  6  0  0  0
  1  2  1  0  0  0  0
  2  3  1  0  0  0  0
  3  4  2  0  0  0  0
  5 14  1  1  0  0  0
  5  3  1  0  0  0  0
  6  5  1  0  0  0  0
  7  6  2  0  0  0  0
  8  6  1  0  0  0  0
  8  1  1  0  0  0  0
  9 10  1  0  0  0  0
  9  1  1  0  0  0  0
 11 10  1  0  0  0  0
 12 13  1  0  0  0  0
 12 11  1  0  0  0  0
 13  9  1  0  0  0  0
 15 14  1  0  0  0  0
 15 25  2  0  0  0  0
 16 17  2  0  0  0  0
 16 15  2  0  0  0  0
 17 24  1  0  0  0  0
 18 19  2  0  0  0  0
 18 17  2  0  0  0  0
 19 21  1  0  0  0  0
 20 19  1  0  0  0  0
 21 22  2  0  0  0  0
 22 23  1  0  0  0  0
 24 22  1  0  0  0  0
 24 25  1  0  0  0  0
 26 27  1  0  0  0  0
 27 32  1  0  0  0  0
 28 35  1  0  0  0  0
 29 28  2  0  0  0  0
 30 29  2  0  0  0  0
 31 30  1  0  0  0  0
 31 32  1  0  0  0  0
 32 33  2  0  0  0  0
 33 28  1  0  0  0  0
 34 35  1  0  0  0  0
 36 30  1  0  0  0  0
 37 36  1  0  0  0  0
M  END
>  <minimizedAffinity>
-8.80159569

$$$$

 OpenBabel12271915423D

 37 41  0  0  1  0  0  0  0  0999 V2000
   19.6620  -14.6000   -2.1180 C   0  0  2  0  0  0  0  0  0  0  0  0
   19.0640  -13.6590   -1.1850 O   0  0  0  0  0  0  0  0  0  0  0  0
   18.6720  -12.3860   -1.4650 C   0  0  0  0  0  0  0  0  0  0  0  0
   18.0320  -11.7750   -0.6170 O   0  0  0  0  0  0  0  0  0  0  0  0
   19.0340  -11.8550   -2.7780 C   0  0  1  0  0  0  0  0  0  0  0  0
   19.7070  -12.5380   -3.7670 C   0  0  0  0  0  0  0  0  0  0  0  0
   20.0160  -12.1860   -4.9080 O   0  0  0  0  0  0  0  0  0  0  0  0
   20.1560  -13.9590   -3.4530 C   0  0  0  0  0  0  0  0  0  0  0  0
   18.5680  -15.6290   -2.4310 C   0  0  0  0  0  0  0  0  0  0  0  0
   17.1000  -15.1120   -2.4840 C   0  0  0  0  0  0  0  0  0  0  0  0
   16.4400  -15.8540   -3.6630 C   0  0  0  0  0  0  0  0  0  0  0  0
   17.4250  -16.9640   -3.9790 C   0  0  0  0  0  0  0  0  0  0  0  0
   18.7330  -16.2450   -3.8330 C   0  0  0  0  0  0  0  0  0  0  0  0
   18.5970  -10.4410   -3.1140 C   0  0  0  0  0  0  0  0  0  0  0  0
   19.6910   -9.4040   -2.9050 C   0  0  0  0  0  0  0  0  0  0  0  0
   19.8330   -8.2590   -3.6520 N   0  0  0  0  0  0  0  0  0  0  0  0
   20.8900   -7.6540   -3.1540 C   0  0  0  0  0  0  0  0  0  0  0  0
   21.5110   -6.4650   -3.4980 N   0  0  0  0  0  0  0  0  0  0  0  0
   22.5680   -6.1070   -2.8700 C   0  0  0  0  0  0  0  0  0  0  0  0
   23.2590   -4.8030   -3.2600 C   0  0  0  0  0  0  0  0  0  0  0  0
   23.1820   -6.9020   -1.7440 C   0  0  0  0  0  0  0  0  0  0  0  0
   22.5710   -8.0380   -1.4290 C   0  0  0  0  0  0  0  0  0  0  0  0
   23.0700   -8.9520   -0.3280 C   0  0  0  0  0  0  0  0  0  0  0  0
   21.3990   -8.4450   -2.1300 N   0  0  0  0  0  0  0  0  0  0  0  0
   20.6680   -9.5440   -1.9690 N   0  0  0  0  0  0  0  0  0  0  0  0
   20.8530  -15.1660   -1.2890 C   0  0  0  0  0  0  0  0  0  0  0  0
   21.6920  -14.3070   -0.3150 C   0  0  0  0  0  0  0  0  0  0  0  0
   23.6810  -11.8900   -2.4660 C   0  0  0  0  0  0  0  0  0  0  0  0
   24.8520  -11.8100   -1.7990 N   0  0  0  0  0  0  0  0  0  0  0  0
   25.0400  -12.5810   -0.7130 C   0  0  0  0  0  0  0  0  0  0  0  0
   24.0390  -13.4270   -0.2020 C   0  0  0  0  0  0  0  0  0  0  0  0
   22.8220  -13.4820   -0.8700 C   0  0  0  0  0  0  0  0  0  0  0  0
   22.6470  -12.7210   -2.0160 C   0  0  0  0  0  0  0  0  0  0  0  0
   24.8210  -10.7170   -4.3780 C   0  0  0  0  0  0  0  0  0  0  0  0
   23.4860  -11.0350   -3.6990 C   0  0  0  0  0  0  0  0  0  0  0  0
   26.3590  -12.5000    0.0160 C   0  0  0  0  0  0  0  0  0  0  0  0
   26.8880  -11.0720    0.0010 C   0  0  0  0  0  0  0  0  0  0  0  0
  1 26  1  1  0  0  0
  1  2  1  0  0  0  0
  3  2  1  0  0  0  0
  3  4  2  0  0  0  0
  5 14  1  6  0  0  0
  5  3  1  0  0  0  0
  6  8  1  0  0  0  0
  6  5  1  0  0  0  0
  7  6  2  0  0  0  0
  8  1  1  0  0  0  0
  9  1  1  0  0  0  0
 10  9  1  0  0  0  0
 11 10  1  0  0  0  0
 12 13  1  0  0  0  0
 12 11  1  0  0  0  0
 13  9  1  0  0  0  0
 14 15  1  0  0  0  0
 15 25  2  0  0  0  0
 16 17  2  0  0  0  0
 16 15  2  0  0  0  0
 17 24  1  0  0  0  0
 18 17  2  0  0  0  0
 18 19  2  0  0  0  0
 19 21  1  0  0  0  0
 20 19  1  0  0  0  0
 21 22  2  0  0  0  0
 22 23  1  0  0  0  0
 24 25  1  0  0  0  0
 24 22  1  0  0  0  0
 26 27  1  0  0  0  0
 28 33  1  0  0  0  0
 28 29  2  0  0  0  0
 29 30  2  0  0  0  0
 30 31  1  0  0  0  0
 30 36  1  0  0  0  0
 32 27  1  0  0  0  0
 32 31  2  0  0  0  0
 33 32  1  0  0  0  0
 34 35  1  0  0  0  0
 35 28  1  0  0  0  0
 37 36  1  0  0  0  0
M  END
>  <minimizedAffinity>
-8.40830231

$$$$

 OpenBabel12271915423D

 37 41  0  0  1  0  0  0  0  0999 V2000
   19.3820  -14.5460   -2.0420 C   0  0  2  0  0  0  0  0  0  0  0  0
   18.6880  -13.5450   -1.2480 O   0  0  0  0  0  0  0  0  0  0  0  0
   18.3550  -12.2880   -1.6490 C   0  0  0  0  0  0  0  0  0  0  0  0
   17.6230  -11.6210   -0.9250 O   0  0  0  0  0  0  0  0  0  0  0  0
   18.8880  -11.8390   -2.9340 C   0  0  1  0  0  0  0  0  0  0  0  0
   19.6690  -12.5860   -3.7880 C   0  0  0  0  0  0  0  0  0  0  0  0
   20.1250  -12.3050   -4.9000 O   0  0  0  0  0  0  0  0  0  0  0  0
   20.0510  -13.9900   -3.3380 C   0  0  0  0  0  0  0  0  0  0  0  0
   18.3190  -15.5820   -2.4300 C   0  0  0  0  0  0  0  0  0  0  0  0
   16.8520  -15.0780   -2.5600 C   0  0  0  0  0  0  0  0  0  0  0  0
   16.2670  -15.8110   -3.7840 C   0  0  0  0  0  0  0  0  0  0  0  0
   17.2810  -16.9060   -4.0580 C   0  0  0  0  0  0  0  0  0  0  0  0
   18.5710  -16.1760   -3.8280 C   0  0  0  0  0  0  0  0  0  0  0  0
   18.5210  -10.4430   -3.4030 C   0  0  0  0  0  0  0  0  0  0  0  0
   19.5630   -9.3930   -3.0520 C   0  0  0  0  0  0  0  0  0  0  0  0
   19.3970   -8.4190   -2.0960 N   0  0  0  0  0  0  0  0  0  0  0  0
   20.5170   -7.7280   -2.1130 C   0  0  0  0  0  0  0  0  0  0  0  0
   20.9280   -6.6330   -1.3720 N   0  0  0  0  0  0  0  0  0  0  0  0
   22.0740   -6.1120   -1.6090 C   0  0  0  0  0  0  0  0  0  0  0  0
   22.5190   -4.8950   -0.8010 C   0  0  0  0  0  0  0  0  0  0  0  0
   23.0330   -6.6360   -2.6490 C   0  0  0  0  0  0  0  0  0  0  0  0
   22.6200   -7.6880   -3.3480 C   0  0  0  0  0  0  0  0  0  0  0  0
   23.4630   -8.3250   -4.4330 C   0  0  0  0  0  0  0  0  0  0  0  0
   21.3430   -8.2660   -3.0940 N   0  0  0  0  0  0  0  0  0  0  0  0
   20.7590   -9.2990   -3.6950 N   0  0  0  0  0  0  0  0  0  0  0  0
   20.4500  -15.0720   -1.0370 C   0  0  0  0  0  0  0  0  0  0  0  0
   21.9670  -15.0760   -1.3370 C   0  0  0  0  0  0  0  0  0  0  0  0
   22.8940  -11.4880   -0.5050 C   0  0  0  0  0  0  0  0  0  0  0  0
   24.2190  -11.5830   -0.2670 N   0  0  0  0  0  0  0  0  0  0  0  0
   24.8330  -12.7660   -0.4460 C   0  0  0  0  0  0  0  0  0  0  0  0
   24.1380  -13.9320   -0.8140 C   0  0  0  0  0  0  0  0  0  0  0  0
   22.7680  -13.8410   -1.0250 C   0  0  0  0  0  0  0  0  0  0  0  0
   22.1450  -12.6100   -0.8830 C   0  0  0  0  0  0  0  0  0  0  0  0
   23.2070   -9.0740    0.1300 C   0  0  0  0  0  0  0  0  0  0  0  0
   22.2150  -10.1480   -0.3210 C   0  0  0  0  0  0  0  0  0  0  0  0
   26.3190  -12.8580   -0.1970 C   0  0  0  0  0  0  0  0  0  0  0  0
   26.9000  -11.4760    0.0670 C   0  0  0  0  0  0  0  0  0  0  0  0
  1  2  1  0  0  0  0
  1 26  1  1  0  0  0
  3  2  1  0  0  0  0
  3  4  2  0  0  0  0
  5 14  1  6  0  0  0
  5  3  1  0  0  0  0
  6  8  1  0  0  0  0
  6  5  1  0  0  0  0
  7  6  2  0  0  0  0
  8  1  1  0  0  0  0
  9  1  1  0  0  0  0
 10  9  1  0  0  0  0
 11 10  1  0  0  0  0
 12 13  1  0  0  0  0
 12 11  1  0  0  0  0
 13  9  1  0  0  0  0
 14 15  1  0  0  0  0
 15 16  2  0  0  0  0
 17 16  2  0  0  0  0
 17 18  2  0  0  0  0
 19 18  2  0  0  0  0
 19 20  1  0  0  0  0
 21 19  1  0  0  0  0
 22 24  1  0  0  0  0
 22 21  2  0  0  0  0
 23 22  1  0  0  0  0
 24 17  1  0  0  0  0
 25 24  1  0  0  0  0
 25 15  2  0  0  0  0
 27 26  1  0  0  0  0
 27 32  1  0  0  0  0
 28 35  1  0  0  0  0
 28 29  2  0  0  0  0
 30 29  2  0  0  0  0
 30 36  1  0  0  0  0
 31 30  1  0  0  0  0
 32 33  1  0  0  0  0
 32 31  2  0  0  0  0
 33 28  1  0  0  0  0
 35 34  1  0  0  0  0
 36 37  1  0  0  0  0
M  END
>  <minimizedAffinity>
-8.37369919

$$$$

 OpenBabel12271915433D

 37 41  0  0  1  0  0  0  0  0999 V2000
   19.8090  -13.5060   -1.5450 C   0  0  2  0  0  0  0  0  0  0  0  0
   18.8410  -12.5570   -1.0190 O   0  0  0  0  0  0  0  0  0  0  0  0
   18.3570  -11.4610   -1.6640 C   0  0  0  0  0  0  0  0  0  0  0  0
   17.4210  -10.8530   -1.1550 O   0  0  0  0  0  0  0  0  0  0  0  0
   18.9860  -11.1080   -2.9360 C   0  0  1  0  0  0  0  0  0  0  0  0
   20.0020  -11.8030   -3.5540 C   0  0  0  0  0  0  0  0  0  0  0  0
   20.5590  -11.6030   -4.6350 O   0  0  0  0  0  0  0  0  0  0  0  0
   20.5530  -13.0240   -2.8300 C   0  0  0  0  0  0  0  0  0  0  0  0
   19.0120  -14.7760   -1.8720 C   0  0  0  0  0  0  0  0  0  0  0  0
   17.4840  -14.6100   -2.1240 C   0  0  0  0  0  0  0  0  0  0  0  0
   17.1490  -15.5590   -3.2910 C   0  0  0  0  0  0  0  0  0  0  0  0
   18.3840  -16.4350   -3.4010 C   0  0  0  0  0  0  0  0  0  0  0  0
   19.4760  -15.4290   -3.1880 C   0  0  0  0  0  0  0  0  0  0  0  0
   18.4520   -9.8950   -3.6750 C   0  0  0  0  0  0  0  0  0  0  0  0
   19.2510   -8.6270   -3.4130 C   0  0  0  0  0  0  0  0  0  0  0  0
   18.7320   -7.4760   -2.8680 N   0  0  0  0  0  0  0  0  0  0  0  0
   19.7430   -6.6360   -2.8180 C   0  0  0  0  0  0  0  0  0  0  0  0
   19.8240   -5.3290   -2.3660 N   0  0  0  0  0  0  0  0  0  0  0  0
   20.9380   -4.7030   -2.4600 C   0  0  0  0  0  0  0  0  0  0  0  0
   21.0220   -3.2580   -1.9750 C   0  0  0  0  0  0  0  0  0  0  0  0
   22.1970   -5.3150   -3.0230 C   0  0  0  0  0  0  0  0  0  0  0  0
   22.0980   -6.5690   -3.4500 C   0  0  0  0  0  0  0  0  0  0  0  0
   23.2690   -7.3190   -4.0490 C   0  0  0  0  0  0  0  0  0  0  0  0
   20.8600   -7.2670   -3.3550 N   0  0  0  0  0  0  0  0  0  0  0  0
   20.5670   -8.5060   -3.7390 N   0  0  0  0  0  0  0  0  0  0  0  0
   20.7930  -13.6620   -0.3480 C   0  0  0  0  0  0  0  0  0  0  0  0
   22.3290  -13.7230   -0.5150 C   0  0  0  0  0  0  0  0  0  0  0  0
   25.2340  -11.2990   -0.1810 C   0  0  0  0  0  0  0  0  0  0  0  0
   24.6170  -10.1000   -0.2600 N   0  0  0  0  0  0  0  0  0  0  0  0
   23.2750  -10.0590   -0.3390 C   0  0  0  0  0  0  0  0  0  0  0  0
   22.4850  -11.2200   -0.4070 C   0  0  0  0  0  0  0  0  0  0  0  0
   23.1230  -12.4530   -0.3610 C   0  0  0  0  0  0  0  0  0  0  0  0
   24.5040  -12.4930   -0.2340 C   0  0  0  0  0  0  0  0  0  0  0  0
   27.3220   -9.9370    0.1590 C   0  0  0  0  0  0  0  0  0  0  0  0
   26.7430  -11.3350   -0.0720 C   0  0  0  0  0  0  0  0  0  0  0  0
   22.5930   -8.7150   -0.4060 C   0  0  0  0  0  0  0  0  0  0  0  0
   21.0960   -8.8660   -0.1680 C   0  0  0  0  0  0  0  0  0  0  0  0
  1  2  1  0  0  0  0
  1 26  1  1  0  0  0
  3  4  2  0  0  0  0
  3  2  1  0  0  0  0
  5 14  1  6  0  0  0
  5  3  1  0  0  0  0
  6  5  1  0  0  0  0
  6  8  1  0  0  0  0
  7  6  2  0  0  0  0
  8  1  1  0  0  0  0
  9  1  1  0  0  0  0
 10  9  1  0  0  0  0
 11 10  1  0  0  0  0
 12 11  1  0  0  0  0
 12 13  1  0  0  0  0
 13  9  1  0  0  0  0
 14 15  1  0  0  0  0
 15 16  2  0  0  0  0
 16 17  2  0  0  0  0
 17 18  2  0  0  0  0
 19 18  2  0  0  0  0
 19 20  1  0  0  0  0
 21 19  1  0  0  0  0
 22 24  1  0  0  0  0
 22 21  2  0  0  0  0
 23 22  1  0  0  0  0
 24 17  1  0  0  0  0
 25 15  2  0  0  0  0
 25 24  1  0  0  0  0
 27 32  1  0  0  0  0
 27 26  1  0  0  0  0
 28 35  1  0  0  0  0
 29 28  2  0  0  0  0
 30 29  2  0  0  0  0
 31 32  1  0  0  0  0
 31 30  1  0  0  0  0
 32 33  2  0  0  0  0
 33 28  1  0  0  0  0
 35 34  1  0  0  0  0
 36 30  1  0  0  0  0
 36 37  1  0  0  0  0
M  END
>  <minimizedAffinity>
-8.25992203

$$$$

 OpenBabel12271915433D

 37 41  0  0  1  0  0  0  0  0999 V2000
   26.6010  -10.7970   -0.7130 C   0  0  2  0  0  0  0  0  0  0  0  0
   26.4490  -11.2820   -2.0750 O   0  0  0  0  0  0  0  0  0  0  0  0
   25.9390  -10.5850   -3.1260 C   0  0  0  0  0  0  0  0  0  0  0  0
   26.0320  -11.0720   -4.2480 O   0  0  0  0  0  0  0  0  0  0  0  0
   25.3340   -9.2870   -2.8300 C   0  0  1  0  0  0  0  0  0  0  0  0
   25.2630   -8.6950   -1.5880 C   0  0  0  0  0  0  0  0  0  0  0  0
   24.8110   -7.5970   -1.2550 O   0  0  0  0  0  0  0  0  0  0  0  0
   25.8240   -9.4770   -0.4080 C   0  0  0  0  0  0  0  0  0  0  0  0
   28.1030  -10.5500   -0.5230 C   0  0  0  0  0  0  0  0  0  0  0  0
   28.5340   -9.1370   -0.0290 C   0  0  0  0  0  0  0  0  0  0  0  0
   29.6810   -9.3780    0.9720 C   0  0  0  0  0  0  0  0  0  0  0  0
   30.0590  -10.8290    0.7350 C   0  0  0  0  0  0  0  0  0  0  0  0
   28.7080  -11.4580    0.5640 C   0  0  0  0  0  0  0  0  0  0  0  0
   24.7690   -8.4890   -3.9900 C   0  0  0  0  0  0  0  0  0  0  0  0
   23.2500   -8.5260   -4.0660 C   0  0  0  0  0  0  0  0  0  0  0  0
   22.4390   -7.4170   -4.0040 N   0  0  0  0  0  0  0  0  0  0  0  0
   21.2130   -7.8840   -4.1000 C   0  0  0  0  0  0  0  0  0  0  0  0
   19.9860   -7.2420   -4.0990 N   0  0  0  0  0  0  0  0  0  0  0  0
   18.9140   -7.9390   -4.1710 C   0  0  0  0  0  0  0  0  0  0  0  0
   17.5620   -7.2300   -4.1550 C   0  0  0  0  0  0  0  0  0  0  0  0
   18.9010   -9.4440   -4.2790 C   0  0  0  0  0  0  0  0  0  0  0  0
   20.0880  -10.0410   -4.2790 C   0  0  0  0  0  0  0  0  0  0  0  0
   20.2410  -11.5450   -4.3730 C   0  0  0  0  0  0  0  0  0  0  0  0
   21.2820   -9.2700   -4.1920 N   0  0  0  0  0  0  0  0  0  0  0  0
   22.5450   -9.6860   -4.1620 N   0  0  0  0  0  0  0  0  0  0  0  0
   26.0390  -11.9870    0.1200 C   0  0  0  0  0  0  0  0  0  0  0  0
   25.4030  -13.2430   -0.5190 C   0  0  0  0  0  0  0  0  0  0  0  0
   21.8980  -14.3440   -1.4850 C   0  0  0  0  0  0  0  0  0  0  0  0
   21.1860  -13.2080   -1.3230 N   0  0  0  0  0  0  0  0  0  0  0  0
   21.8300  -12.0760   -0.9850 C   0  0  0  0  0  0  0  0  0  0  0  0
   23.2120  -12.0370   -0.7290 C   0  0  0  0  0  0  0  0  0  0  0  0
   23.9380  -13.2150   -0.8620 C   0  0  0  0  0  0  0  0  0  0  0  0
   23.2800  -14.3710   -1.2550 C   0  0  0  0  0  0  0  0  0  0  0  0
   19.7090  -15.3250   -2.2400 C   0  0  0  0  0  0  0  0  0  0  0  0
   21.1700  -15.6080   -1.8860 C   0  0  0  0  0  0  0  0  0  0  0  0
   21.0290  -10.8070   -0.8260 C   0  0  0  0  0  0  0  0  0  0  0  0
   21.9430   -9.6440   -0.4610 C   0  0  0  0  0  0  0  0  0  0  0  0
  1  9  1  0  0  0  0
  1  8  1  0  0  0  0
  1 26  1  1  0  0  0
  2  1  1  0  0  0  0
  3  5  1  0  0  0  0
  3  2  1  0  0  0  0
  4  3  2  0  0  0  0
  5 14  1  6  0  0  0
  5  6  1  0  0  0  0
  6  7  2  0  0  0  0
  6  8  1  0  0  0  0
  9 10  1  0  0  0  0
  9 13  1  0  0  0  0
 10 11  1  0  0  0  0
 12 11  1  0  0  0  0
 13 12  1  0  0  0  0
 15 16  2  0  0  0  0
 15 14  1  0  0  0  0
 17 18  2  0  0  0  0
 17 16  2  0  0  0  0
 19 20  1  0  0  0  0
 19 18  2  0  0  0  0
 21 22  2  0  0  0  0
 21 19  1  0  0  0  0
 22 24  1  0  0  0  0
 23 22  1  0  0  0  0
 24 25  1  0  0  0  0
 24 17  1  0  0  0  0
 25 15  2  0  0  0  0
 27 26  1  0  0  0  0
 28 29  2  0  0  0  0
 28 33  1  0  0  0  0
 29 30  2  0  0  0  0
 30 36  1  0  0  0  0
 30 31  1  0  0  0  0
 32 31  2  0  0  0  0
 32 27  1  0  0  0  0
 33 32  1  0  0  0  0
 34 35  1  0  0  0  0
 35 28  1  0  0  0  0
 36 37  1  0  0  0  0
M  END
>  <minimizedAffinity>
-8.14897823

$$$$

 OpenBabel12271915433D

 37 41  0  0  1  0  0  0  0  0999 V2000
   18.8600  -10.6330   -1.8660 C   0  0  2  0  0  0  0  0  0  0  0  0
   20.0120  -10.6540   -0.9800 O   0  0  0  0  0  0  0  0  0  0  0  0
   21.3150  -10.7690   -1.3550 C   0  0  0  0  0  0  0  0  0  0  0  0
   22.1830  -10.6010   -0.5050 O   0  0  0  0  0  0  0  0  0  0  0  0
   21.5760  -11.0650   -2.7630 C   0  0  1  0  0  0  0  0  0  0  0  0
   20.6220  -11.2070   -3.7480 C   0  0  0  0  0  0  0  0  0  0  0  0
   20.7520  -11.4150   -4.9560 O   0  0  0  0  0  0  0  0  0  0  0  0
   19.1630  -11.0880   -3.3280 C   0  0  0  0  0  0  0  0  0  0  0  0
   18.3740   -9.1780   -1.8840 C   0  0  0  0  0  0  0  0  0  0  0  0
   18.7290   -8.3260   -3.1380 C   0  0  0  0  0  0  0  0  0  0  0  0
   17.4790   -7.4730   -3.4290 C   0  0  0  0  0  0  0  0  0  0  0  0
   16.6460   -7.6230   -2.1690 C   0  0  0  0  0  0  0  0  0  0  0  0
   16.8370   -9.0790   -1.8650 C   0  0  0  0  0  0  0  0  0  0  0  0
   23.0230  -11.1870   -3.2040 C   0  0  0  0  0  0  0  0  0  0  0  0
   23.5900   -9.8970   -3.7780 C   0  0  0  0  0  0  0  0  0  0  0  0
   24.7100   -9.8230   -4.5720 N   0  0  0  0  0  0  0  0  0  0  0  0
   24.8540   -8.5440   -4.8420 C   0  0  0  0  0  0  0  0  0  0  0  0
   25.8000   -7.8680   -5.5950 N   0  0  0  0  0  0  0  0  0  0  0  0
   25.7400   -6.5910   -5.6750 C   0  0  0  0  0  0  0  0  0  0  0  0
   26.7920   -5.8470   -6.4940 C   0  0  0  0  0  0  0  0  0  0  0  0
   24.6730   -5.7600   -5.0060 C   0  0  0  0  0  0  0  0  0  0  0  0
   23.7750   -6.4270   -4.2890 C   0  0  0  0  0  0  0  0  0  0  0  0
   22.6480   -5.7350   -3.5500 C   0  0  0  0  0  0  0  0  0  0  0  0
   23.8420   -7.8460   -4.1910 N   0  0  0  0  0  0  0  0  0  0  0  0
   23.0520   -8.6750   -3.5150 N   0  0  0  0  0  0  0  0  0  0  0  0
   17.8880  -11.6220   -1.1570 C   0  0  0  0  0  0  0  0  0  0  0  0
   18.3630  -12.8920   -0.4140 C   0  0  0  0  0  0  0  0  0  0  0  0
   18.7470  -15.7350   -2.9030 C   0  0  0  0  0  0  0  0  0  0  0  0
   20.0710  -15.9920   -2.8430 N   0  0  0  0  0  0  0  0  0  0  0  0
   20.8280  -15.3190   -1.9570 C   0  0  0  0  0  0  0  0  0  0  0  0
   20.3070  -14.3080   -1.1300 C   0  0  0  0  0  0  0  0  0  0  0  0
   18.9510  -14.0210   -1.2170 C   0  0  0  0  0  0  0  0  0  0  0  0
   18.1640  -14.7480   -2.0990 C   0  0  0  0  0  0  0  0  0  0  0  0
   16.4050  -16.3160   -3.6170 C   0  0  0  0  0  0  0  0  0  0  0  0
   17.8990  -16.5120   -3.8870 C   0  0  0  0  0  0  0  0  0  0  0  0
   22.3030  -15.6270   -1.8820 C   0  0  0  0  0  0  0  0  0  0  0  0
   23.0570  -14.4660   -1.2470 C   0  0  0  0  0  0  0  0  0  0  0  0
  1 26  1  1  0  0  0
  1  2  1  0  0  0  0
  3  2  1  0  0  0  0
  3  4  2  0  0  0  0
  5 14  1  6  0  0  0
  5  3  1  0  0  0  0
  6  8  1  0  0  0  0
  6  5  1  0  0  0  0
  7  6  2  0  0  0  0
  8  1  1  0  0  0  0
  9  1  1  0  0  0  0
  9 13  1  0  0  0  0
 10  9  1  0  0  0  0
 11 10  1  0  0  0  0
 11 12  1  0  0  0  0
 12 13  1  0  0  0  0
 15 25  2  0  0  0  0
 15 14  1  0  0  0  0
 16 15  2  0  0  0  0
 17 16  2  0  0  0  0
 17 24  1  0  0  0  0
 18 17  2  0  0  0  0
 19 18  2  0  0  0  0
 19 21  1  0  0  0  0
 20 19  1  0  0  0  0
 21 22  2  0  0  0  0
 22 24  1  0  0  0  0
 22 23  1  0  0  0  0
 24 25  1  0  0  0  0
 26 27  1  0  0  0  0
 28 29  2  0  0  0  0
 28 33  1  0  0  0  0
 29 30  2  0  0  0  0
 30 36  1  0  0  0  0
 30 31  1  0  0  0  0
 32 31  2  0  0  0  0
 32 27  1  0  0  0  0
 33 32  1  0  0  0  0
 35 34  1  0  0  0  0
 35 28  1  0  0  0  0
 36 37  1  0  0  0  0
M  END
>  <minimizedAffinity>
-8.03460312

$$$$

 OpenBabel12271915433D

 37 41  0  0  1  0  0  0  0  0999 V2000
   19.1190  -10.3700   -1.7310 C   0  0  2  0  0  0  0  0  0  0  0  0
   20.2330  -10.5250   -0.8090 O   0  0  0  0  0  0  0  0  0  0  0  0
   21.5200  -10.8110   -1.1430 C   0  0  0  0  0  0  0  0  0  0  0  0
   22.3770  -10.7440   -0.2670 O   0  0  0  0  0  0  0  0  0  0  0  0
   21.7820  -11.1590   -2.5380 C   0  0  1  0  0  0  0  0  0  0  0  0
   20.8470  -11.1910   -3.5500 C   0  0  0  0  0  0  0  0  0  0  0  0
   20.9850  -11.4320   -4.7520 O   0  0  0  0  0  0  0  0  0  0  0  0
   19.4040  -10.8810   -3.1780 C   0  0  0  0  0  0  0  0  0  0  0  0
   18.8250   -8.8650   -1.7790 C   0  0  0  0  0  0  0  0  0  0  0  0
   19.8170   -7.9720   -2.5820 C   0  0  0  0  0  0  0  0  0  0  0  0
   18.9440   -6.9340   -3.3140 C   0  0  0  0  0  0  0  0  0  0  0  0
   17.5910   -7.0680   -2.6380 C   0  0  0  0  0  0  0  0  0  0  0  0
   17.4890   -8.5560   -2.4820 C   0  0  0  0  0  0  0  0  0  0  0  0
   23.2140  -11.4710   -2.9330 C   0  0  0  0  0  0  0  0  0  0  0  0
   23.9990  -10.2470   -3.3780 C   0  0  0  0  0  0  0  0  0  0  0  0
   24.1950   -9.8800   -4.6890 N   0  0  0  0  0  0  0  0  0  0  0  0
   24.9190   -8.7830   -4.6330 C   0  0  0  0  0  0  0  0  0  0  0  0
   25.4220   -7.9660   -5.6320 N   0  0  0  0  0  0  0  0  0  0  0  0
   26.1410   -6.9570   -5.3110 C   0  0  0  0  0  0  0  0  0  0  0  0
   26.7070   -6.0660   -6.4140 C   0  0  0  0  0  0  0  0  0  0  0  0
   26.4680   -6.5800   -3.8870 C   0  0  0  0  0  0  0  0  0  0  0  0
   25.9760   -7.3760   -2.9440 C   0  0  0  0  0  0  0  0  0  0  0  0
   26.2220   -7.1370   -1.4690 C   0  0  0  0  0  0  0  0  0  0  0  0
   25.1810   -8.5040   -3.2960 N   0  0  0  0  0  0  0  0  0  0  0  0
   24.6220   -9.4130   -2.5010 N   0  0  0  0  0  0  0  0  0  0  0  0
   18.0070  -11.2160   -1.0420 C   0  0  0  0  0  0  0  0  0  0  0  0
   18.2710  -12.5930   -0.3910 C   0  0  0  0  0  0  0  0  0  0  0  0
   20.3860  -15.3080   -1.9990 C   0  0  0  0  0  0  0  0  0  0  0  0
   19.4820  -15.9650   -2.7550 N   0  0  0  0  0  0  0  0  0  0  0  0
   18.2200  -15.5010   -2.8180 C   0  0  0  0  0  0  0  0  0  0  0  0
   17.7850  -14.3900   -2.0750 C   0  0  0  0  0  0  0  0  0  0  0  0
   18.7080  -13.7350   -1.2700 C   0  0  0  0  0  0  0  0  0  0  0  0
   20.0190  -14.1880   -1.2420 C   0  0  0  0  0  0  0  0  0  0  0  0
   22.7320  -14.8540   -1.2110 C   0  0  0  0  0  0  0  0  0  0  0  0
   21.8080  -15.8240   -1.9500 C   0  0  0  0  0  0  0  0  0  0  0  0
   17.2210  -16.2300   -3.6820 C   0  0  0  0  0  0  0  0  0  0  0  0
   17.8770  -17.4260   -4.3600 C   0  0  0  0  0  0  0  0  0  0  0  0
  1 26  1  1  0  0  0
  1  2  1  0  0  0  0
  3  2  1  0  0  0  0
  3  4  2  0  0  0  0
  5 14  1  6  0  0  0
  5  3  1  0  0  0  0
  6  8  1  0  0  0  0
  6  5  1  0  0  0  0
  7  6  2  0  0  0  0
  8  1  1  0  0  0  0
  9  1  1  0  0  0  0
 10  9  1  0  0  0  0
 11 12  1  0  0  0  0
 11 10  1  0  0  0  0
 12 13  1  0  0  0  0
 13  9  1  0  0  0  0
 15 14  1  0  0  0  0
 15 25  2  0  0  0  0
 16 17  2  0  0  0  0
 16 15  2  0  0  0  0
 17 24  1  0  0  0  0
 18 19  2  0  0  0  0
 18 17  2  0  0  0  0
 19 21  1  0  0  0  0
 20 19  1  0  0  0  0
 21 22  2  0  0  0  0
 22 23  1  0  0  0  0
 24 22  1  0  0  0  0
 24 25  1  0  0  0  0
 26 27  1  0  0  0  0
 28 35  1  0  0  0  0
 28 33  1  0  0  0  0
 29 28  2  0  0  0  0
 30 29  2  0  0  0  0
 30 31  1  0  0  0  0
 31 32  1  0  0  0  0
 32 33  2  0  0  0  0
 32 27  1  0  0  0  0
 35 34  1  0  0  0  0
 36 30  1  0  0  0  0
 37 36  1  0  0  0  0
M  END
>  <minimizedAffinity>
-7.96833706

$$$$

 OpenBabel12271915433D

 37 41  0  0  1  0  0  0  0  0999 V2000
   21.9980  -12.2580   -1.1560 C   0  0  2  0  0  0  0  0  0  0  0  0
   22.4250  -11.0880   -0.4050 O   0  0  0  0  0  0  0  0  0  0  0  0
   22.4460   -9.8050   -0.8560 C   0  0  0  0  0  0  0  0  0  0  0  0
   22.6720   -8.9080   -0.0500 O   0  0  0  0  0  0  0  0  0  0  0  0
   22.1740   -9.5970   -2.2780 C   0  0  1  0  0  0  0  0  0  0  0  0
   21.8670  -10.5810   -3.1920 C   0  0  0  0  0  0  0  0  0  0  0  0
   21.5860  -10.4930   -4.3900 O   0  0  0  0  0  0  0  0  0  0  0  0
   21.8510  -12.0190   -2.6920 C   0  0  0  0  0  0  0  0  0  0  0  0
   20.6320  -12.6500   -0.5770 C   0  0  0  0  0  0  0  0  0  0  0  0
   19.3820  -11.9150   -1.1450 C   0  0  0  0  0  0  0  0  0  0  0  0
   18.2840  -12.9900   -1.2610 C   0  0  0  0  0  0  0  0  0  0  0  0
   18.8390  -14.1510   -0.4560 C   0  0  0  0  0  0  0  0  0  0  0  0
   20.2830  -14.1230   -0.8600 C   0  0  0  0  0  0  0  0  0  0  0  0
   22.1830   -8.1720   -2.7980 C   0  0  0  0  0  0  0  0  0  0  0  0
   23.5280   -7.7440   -3.3670 C   0  0  0  0  0  0  0  0  0  0  0  0
   23.7850   -7.5570   -4.7040 N   0  0  0  0  0  0  0  0  0  0  0  0
   25.0500   -7.2000   -4.7620 C   0  0  0  0  0  0  0  0  0  0  0  0
   25.8630   -6.8810   -5.8380 N   0  0  0  0  0  0  0  0  0  0  0  0
   27.0940   -6.5960   -5.6280 C   0  0  0  0  0  0  0  0  0  0  0  0
   27.9910   -6.2580   -6.8160 C   0  0  0  0  0  0  0  0  0  0  0  0
   27.7250   -6.5660   -4.2580 C   0  0  0  0  0  0  0  0  0  0  0  0
   26.9290   -6.8740   -3.2410 C   0  0  0  0  0  0  0  0  0  0  0  0
   27.4150   -6.8980   -1.8060 C   0  0  0  0  0  0  0  0  0  0  0  0
   25.5600   -7.1990   -3.4690 N   0  0  0  0  0  0  0  0  0  0  0  0
   24.6260   -7.5460   -2.5880 N   0  0  0  0  0  0  0  0  0  0  0  0
   23.1370  -13.2740   -0.8490 C   0  0  0  0  0  0  0  0  0  0  0  0
   24.3810  -12.9230   -0.0010 C   0  0  0  0  0  0  0  0  0  0  0  0
   27.4700  -10.7490   -0.3940 C   0  0  0  0  0  0  0  0  0  0  0  0
   27.4570  -10.4700   -1.7160 N   0  0  0  0  0  0  0  0  0  0  0  0
   26.4280  -10.9040   -2.4660 C   0  0  0  0  0  0  0  0  0  0  0  0
   25.3900  -11.6950   -1.9420 C   0  0  0  0  0  0  0  0  0  0  0  0
   25.4230  -12.0100   -0.5900 C   0  0  0  0  0  0  0  0  0  0  0  0
   26.4610  -11.5230    0.1910 C   0  0  0  0  0  0  0  0  0  0  0  0
   29.5960  -11.3620    0.8020 C   0  0  0  0  0  0  0  0  0  0  0  0
   28.6200  -10.2390    0.4460 C   0  0  0  0  0  0  0  0  0  0  0  0
   26.4120  -10.5700   -3.9370 C   0  0  0  0  0  0  0  0  0  0  0  0
   25.0980  -11.0130   -4.5680 C   0  0  0  0  0  0  0  0  0  0  0  0
  1 26  1  1  0  0  0
  1  9  1  0  0  0  0
  1  2  1  0  0  0  0
  3  2  1  0  0  0  0
  3  4  2  0  0  0  0
  5 14  1  1  0  0  0
  5  3  1  0  0  0  0
  6  8  1  0  0  0  0
  6  5  1  0  0  0  0
  7  6  2  0  0  0  0
  8  1  1  0  0  0  0
 10  9  1  0  0  0  0
 11 10  1  0  0  0  0
 11 12  1  0  0  0  0
 13  9  1  0  0  0  0
 13 12  1  0  0  0  0
 15 14  1  0  0  0  0
 15 25  2  0  0  0  0
 16 15  2  0  0  0  0
 17 16  2  0  0  0  0
 17 24  1  0  0  0  0
 18 19  2  0  0  0  0
 18 17  2  0  0  0  0
 19 21  1  0  0  0  0
 20 19  1  0  0  0  0
 21 22  2  0  0  0  0
 22 23  1  0  0  0  0
 24 22  1  0  0  0  0
 24 25  1  0  0  0  0
 26 27  1  0  0  0  0
 28 33  1  0  0  0  0
 28 35  1  0  0  0  0
 29 28  2  0  0  0  0
 30 31  1  0  0  0  0
 30 29  2  0  0  0  0
 31 32  1  0  0  0  0
 32 27  1  0  0  0  0
 32 33  2  0  0  0  0
 35 34  1  0  0  0  0
 36 30  1  0  0  0  0
 37 36  1  0  0  0  0
M  END
>  <minimizedAffinity>
-7.88801289

$$$$
