
 OpenBabel12271915443D

 27 29  0  0  1  0  0  0  0  0999 V2000
   19.9400  -13.8340   -1.4180 C   0  0  1  0  0  0  0  0  0  0  0  0
   20.2240  -14.5200   -0.1890 N   0  0  0  0  0  0  0  0  0  0  0  0
   19.6330  -14.1990    0.6520 H   0  0  0  0  0  0  0  0  0  0  0  0
   21.5900  -14.0170    0.2470 O   0  0  0  0  0  0  0  0  0  0  0  0
   22.1410  -13.4350   -0.9860 C   0  0  2  0  0  0  0  0  0  0  0  0
   23.5730  -13.9110   -1.2570 C   0  0  1  0  0  0  0  0  0  0  0  0
   24.6060  -13.0930   -0.4820 C   0  0  2  0  0  0  0  0  0  0  0  0
   24.3610  -11.6360   -0.7900 C   0  0  1  0  0  0  0  0  0  0  0  0
   22.9870  -11.2730   -0.2570 C   0  0  2  0  0  0  0  0  0  0  0  0
   22.0070  -11.9940   -1.0020 O   0  0  0  0  0  0  0  0  0  0  0  0
   21.2730  -13.8800   -2.1140 C   0  0  0  0  0  0  0  0  0  0  0  0
   18.9200  -14.6530   -2.1500 C   0  0  0  0  0  0  0  0  0  0  0  0
   19.2940  -15.7260   -2.9820 C   0  0  0  0  0  0  0  0  0  0  0  0
   18.3450  -16.4920   -3.6950 C   0  0  0  0  0  0  0  0  0  0  0  0
   17.0130  -16.1670   -3.5610 C   0  0  0  0  0  0  0  0  0  0  0  0
   15.9800  -16.9930   -4.3080 C   0  0  0  0  0  0  0  0  0  0  0  0
   16.6080  -15.1290   -2.7380 C   0  0  0  0  0  0  0  0  0  0  0  0
   17.5590  -14.3790   -2.0350 C   0  0  0  0  0  0  0  0  0  0  0  0
   25.9470  -13.4930   -0.9370 O   0  0  0  0  0  0  0  0  0  0  0  0
   25.9120  -13.5320   -1.9130 H   0  0  0  0  0  0  0  0  0  0  0  0
   23.6630  -15.3270   -0.9050 O   0  0  0  0  0  0  0  0  0  0  0  0
   24.3260  -15.7420   -1.5320 H   0  0  0  0  0  0  0  0  0  0  0  0
   25.3880  -10.7740   -0.2390 O   0  0  0  0  0  0  0  0  0  0  0  0
   25.0660  -10.3650    0.5850 H   0  0  0  0  0  0  0  0  0  0  0  0
   22.6530   -9.8260   -0.5510 C   0  0  0  0  0  0  0  0  0  0  0  0
   23.3820   -9.0020    0.4170 O   0  0  0  0  0  0  0  0  0  0  0  0
   22.7340   -8.3390    0.7460 H   0  0  0  0  0  0  0  0  0  0  0  0
  1 12  1  6  0  0  0
  1  2  1  0  0  0  0
  2  4  1  0  0  0  0
  2  3  1  0  0  0  0
  5 11  1  6  0  0  0
  5  4  1  0  0  0  0
  6  5  1  1  0  0  0
  6 21  1  0  0  0  0
  6  7  1  0  0  0  0
  7 19  1  6  0  0  0
  8  7  1  0  0  0  0
  8  9  1  0  0  0  0
  8 23  1  1  0  0  0
  9 25  1  6  0  0  0
 10  5  1  0  0  0  0
 10  9  1  0  0  0  0
 11  1  1  0  0  0  0
 12 18  1  0  0  0  0
 13 12  2  0  0  0  0
 14 15  2  0  0  0  0
 14 13  1  0  0  0  0
 15 17  1  0  0  0  0
 16 15  1  0  0  0  0
 17 18  2  0  0  0  0
 20 19  1  0  0  0  0
 22 21  1  0  0  0  0
 23 24  1  0  0  0  0
 25 26  1  0  0  0  0
 26 27  1  0  0  0  0
M  END
>  <minimizedAffinity>
-8.99810219

$$$$

 OpenBabel12271915443D

 27 29  0  0  1  0  0  0  0  0999 V2000
   21.2160  -14.1510   -1.3140 C   0  0  1  0  0  0  0  0  0  0  0  0
   20.4530  -14.2150   -0.0990 N   0  0  0  0  0  0  0  0  0  0  0  0
   20.5920  -15.1170    0.4720 H   0  0  0  0  0  0  0  0  0  0  0  0
   19.0110  -14.4060   -0.5390 O   0  0  0  0  0  0  0  0  0  0  0  0
   19.0340  -13.9920   -1.9490 C   0  0  2  0  0  0  0  0  0  0  0  0
   17.8990  -13.0170   -2.2820 C   0  0  1  0  0  0  0  0  0  0  0  0
   16.5870  -13.7440   -2.5800 C   0  0  2  0  0  0  0  0  0  0  0  0
   16.8650  -14.7700   -3.6510 C   0  0  1  0  0  0  0  0  0  0  0  0
   17.8400  -15.7840   -3.0800 C   0  0  2  0  0  0  0  0  0  0  0  0
   19.0850  -15.1320   -2.8390 O   0  0  0  0  0  0  0  0  0  0  0  0
   20.3350  -13.3020   -2.1890 C   0  0  0  0  0  0  0  0  0  0  0  0
   22.4970  -13.4440   -0.9890 C   0  0  0  0  0  0  0  0  0  0  0  0
   23.7420  -14.0980   -1.0700 C   0  0  0  0  0  0  0  0  0  0  0  0
   24.9550  -13.4510   -0.7460 C   0  0  0  0  0  0  0  0  0  0  0  0
   24.9030  -12.1370   -0.3390 C   0  0  0  0  0  0  0  0  0  0  0  0
   26.2010  -11.4220   -0.0040 C   0  0  0  0  0  0  0  0  0  0  0  0
   23.6980  -11.4570   -0.2640 C   0  0  0  0  0  0  0  0  0  0  0  0
   22.5040  -12.1090   -0.5900 C   0  0  0  0  0  0  0  0  0  0  0  0
   15.6100  -12.7540   -3.0620 O   0  0  0  0  0  0  0  0  0  0  0  0
   16.0770  -12.1950   -3.7130 H   0  0  0  0  0  0  0  0  0  0  0  0
   17.7370  -12.0960   -1.1580 O   0  0  0  0  0  0  0  0  0  0  0  0
   17.4440  -11.2170   -1.5400 H   0  0  0  0  0  0  0  0  0  0  0  0
   15.6570  -15.4080   -4.1330 O   0  0  0  0  0  0  0  0  0  0  0  0
   15.5580  -16.2820   -3.7140 H   0  0  0  0  0  0  0  0  0  0  0  0
   18.1920  -16.8400   -4.1070 C   0  0  0  0  0  0  0  0  0  0  0  0
   17.0370  -17.7330   -4.2330 O   0  0  0  0  0  0  0  0  0  0  0  0
   17.4020  -18.6460   -4.2200 H   0  0  0  0  0  0  0  0  0  0  0  0
  1 12  1  1  0  0  0
  1  2  1  0  0  0  0
  2  3  1  0  0  0  0
  4  2  1  0  0  0  0
  5 11  1  6  0  0  0
  5  4  1  0  0  0  0
  6  5  1  1  0  0  0
  6 21  1  0  0  0  0
  7 19  1  6  0  0  0
  7  6  1  0  0  0  0
  8 23  1  1  0  0  0
  8  9  1  0  0  0  0
  8  7  1  0  0  0  0
  9 25  1  6  0  0  0
  9 10  1  0  0  0  0
 10  5  1  0  0  0  0
 11  1  1  0  0  0  0
 12 18  1  0  0  0  0
 13 12  2  0  0  0  0
 13 14  1  0  0  0  0
 14 15  2  0  0  0  0
 15 17  1  0  0  0  0
 15 16  1  0  0  0  0
 18 17  2  0  0  0  0
 20 19  1  0  0  0  0
 22 21  1  0  0  0  0
 23 24  1  0  0  0  0
 26 27  1  0  0  0  0
 26 25  1  0  0  0  0
M  END
>  <minimizedAffinity>
-8.29262066

$$$$

 OpenBabel12271915443D

 27 29  0  0  1  0  0  0  0  0999 V2000
   21.9720  -12.1570   -1.6650 C   0  0  1  0  0  0  0  0  0  0  0  0
   22.3390  -12.5010   -0.3200 N   0  0  0  0  0  0  0  0  0  0  0  0
   21.7010  -12.0830    0.4400 H   0  0  0  0  0  0  0  0  0  0  0  0
   23.6170  -11.7290   -0.0410 O   0  0  0  0  0  0  0  0  0  0  0  0
   24.0920  -11.3720   -1.3860 C   0  0  2  0  0  0  0  0  0  0  0  0
   25.5790  -11.6950   -1.5770 C   0  0  1  0  0  0  0  0  0  0  0  0
   26.4820  -10.5880   -1.0300 C   0  0  2  0  0  0  0  0  0  0  0  0
   26.0390   -9.2870   -1.6520 C   0  0  1  0  0  0  0  0  0  0  0  0
   24.6230   -9.0060   -1.1840 C   0  0  2  0  0  0  0  0  0  0  0  0
   23.7590  -10.0040   -1.7240 O   0  0  0  0  0  0  0  0  0  0  0  0
   23.3040  -12.1760   -2.3640 C   0  0  0  0  0  0  0  0  0  0  0  0
   21.0820  -13.2520   -2.1700 C   0  0  0  0  0  0  0  0  0  0  0  0
   20.1120  -13.0150   -3.1640 C   0  0  0  0  0  0  0  0  0  0  0  0
   19.2510  -14.0330   -3.6330 C   0  0  0  0  0  0  0  0  0  0  0  0
   19.3770  -15.2920   -3.0910 C   0  0  0  0  0  0  0  0  0  0  0  0
   18.4700  -16.4010   -3.5990 C   0  0  0  0  0  0  0  0  0  0  0  0
   20.3310  -15.5650   -2.1250 C   0  0  0  0  0  0  0  0  0  0  0  0
   21.1780  -14.5490   -1.6700 C   0  0  0  0  0  0  0  0  0  0  0  0
   27.8690  -10.8930   -1.4140 O   0  0  0  0  0  0  0  0  0  0  0  0
   27.8470  -11.1560   -2.3550 H   0  0  0  0  0  0  0  0  0  0  0  0
   25.8620  -12.9680   -0.9170 O   0  0  0  0  0  0  0  0  0  0  0  0
   26.5820  -13.4200   -1.4490 H   0  0  0  0  0  0  0  0  0  0  0  0
   26.9310   -8.1900   -1.3340 O   0  0  0  0  0  0  0  0  0  0  0  0
   26.5480   -7.6540   -0.6160 H   0  0  0  0  0  0  0  0  0  0  0  0
   24.0920   -7.7220   -1.7880 C   0  0  0  0  0  0  0  0  0  0  0  0
   24.4470   -6.6290   -0.8770 O   0  0  0  0  0  0  0  0  0  0  0  0
   23.6340   -6.0820   -0.7890 H   0  0  0  0  0  0  0  0  0  0  0  0
  1 12  1  6  0  0  0
  1  2  1  0  0  0  0
  2  4  1  0  0  0  0
  2  3  1  0  0  0  0
  5 11  1  6  0  0  0
  5  4  1  0  0  0  0
  6  5  1  1  0  0  0
  6  7  1  0  0  0  0
  6 21  1  0  0  0  0
  7 19  1  6  0  0  0
  8 23  1  1  0  0  0
  8  9  1  0  0  0  0
  8  7  1  0  0  0  0
  9 25  1  6  0  0  0
 10  5  1  0  0  0  0
 10  9  1  0  0  0  0
 11  1  1  0  0  0  0
 12 18  2  0  0  0  0
 13 12  1  0  0  0  0
 14 13  2  0  0  0  0
 14 15  1  0  0  0  0
 15 17  2  0  0  0  0
 16 15  1  0  0  0  0
 17 18  1  0  0  0  0
 20 19  1  0  0  0  0
 22 21  1  0  0  0  0
 23 24  1  0  0  0  0
 25 26  1  0  0  0  0
 26 27  1  0  0  0  0
M  END
>  <minimizedAffinity>
-7.56225252

$$$$

 OpenBabel12271915443D

 27 29  0  0  1  0  0  0  0  0999 V2000
   20.0760  -13.3580   -2.7900 C   0  0  1  0  0  0  0  0  0  0  0  0
   20.1680  -12.4350   -3.8860 N   0  0  0  0  0  0  0  0  0  0  0  0
   20.8940  -12.7000   -4.6360 H   0  0  0  0  0  0  0  0  0  0  0  0
   20.8300  -11.1940   -3.3110 O   0  0  0  0  0  0  0  0  0  0  0  0
   20.6500  -11.3590   -1.8620 C   0  0  2  0  0  0  0  0  0  0  0  0
   20.1060  -10.0870   -1.2000 C   0  0  1  0  0  0  0  0  0  0  0  0
   21.2160   -9.0830   -0.8860 C   0  0  2  0  0  0  0  0  0  0  0  0
   22.2710   -9.8040   -0.0840 C   0  0  1  0  0  0  0  0  0  0  0  0
   22.8620  -10.8910   -0.9640 C   0  0  2  0  0  0  0  0  0  0  0  0
   21.8510  -11.8600   -1.2280 O   0  0  0  0  0  0  0  0  0  0  0  0
   19.6620  -12.4570   -1.6590 C   0  0  0  0  0  0  0  0  0  0  0  0
   18.9900  -14.3340   -3.1300 C   0  0  0  0  0  0  0  0  0  0  0  0
   17.6370  -13.9420   -3.1830 C   0  0  0  0  0  0  0  0  0  0  0  0
   16.6010  -14.8550   -3.4800 C   0  0  0  0  0  0  0  0  0  0  0  0
   16.9400  -16.1670   -3.7250 C   0  0  0  0  0  0  0  0  0  0  0  0
   15.8370  -17.1560   -4.0640 C   0  0  0  0  0  0  0  0  0  0  0  0
   18.2600  -16.5830   -3.6980 C   0  0  0  0  0  0  0  0  0  0  0  0
   19.2780  -15.6680   -3.4040 C   0  0  0  0  0  0  0  0  0  0  0  0
   20.6350   -7.9860   -0.0980 O   0  0  0  0  0  0  0  0  0  0  0  0
   20.0720   -8.3990    0.5860 H   0  0  0  0  0  0  0  0  0  0  0  0
   19.1080   -9.4960   -2.0900 O   0  0  0  0  0  0  0  0  0  0  0  0
   18.4200   -9.0570   -1.5070 H   0  0  0  0  0  0  0  0  0  0  0  0
   23.2960   -8.9080    0.4130 O   0  0  0  0  0  0  0  0  0  0  0  0
   24.0860   -8.9660   -0.1540 H   0  0  0  0  0  0  0  0  0  0  0  0
   23.9180  -11.6820   -0.2190 C   0  0  0  0  0  0  0  0  0  0  0  0
   25.1910  -10.9720   -0.3780 O   0  0  0  0  0  0  0  0  0  0  0  0
   25.8550  -11.6630   -0.6020 H   0  0  0  0  0  0  0  0  0  0  0  0
  1 12  1  6  0  0  0
  1 11  1  0  0  0  0
  2  4  1  0  0  0  0
  2  1  1  0  0  0  0
  3  2  1  0  0  0  0
  4  5  1  0  0  0  0
  5 11  1  1  0  0  0
  5 10  1  0  0  0  0
  6  5  1  6  0  0  0
  6  7  1  0  0  0  0
  7 19  1  1  0  0  0
  7  8  1  0  0  0  0
  8 23  1  6  0  0  0
  9 25  1  1  0  0  0
  9  8  1  0  0  0  0
 10  9  1  0  0  0  0
 13 12  1  0  0  0  0
 14 13  2  0  0  0  0
 15 17  2  0  0  0  0
 15 14  1  0  0  0  0
 16 15  1  0  0  0  0
 17 18  1  0  0  0  0
 18 12  2  0  0  0  0
 19 20  1  0  0  0  0
 21 22  1  0  0  0  0
 21  6  1  0  0  0  0
 24 23  1  0  0  0  0
 26 25  1  0  0  0  0
 27 26  1  0  0  0  0
M  END
>  <minimizedAffinity>
-7.49184179

$$$$

 OpenBabel12271915443D

 27 29  0  0  1  0  0  0  0  0999 V2000
   22.8540  -11.4380   -1.1830 C   0  0  1  0  0  0  0  0  0  0  0  0
   22.8730  -11.5860   -2.6110 N   0  0  0  0  0  0  0  0  0  0  0  0
   22.8130  -10.6610   -3.1590 H   0  0  0  0  0  0  0  0  0  0  0  0
   21.5250  -12.1880   -2.9710 O   0  0  0  0  0  0  0  0  0  0  0  0
   21.0490  -12.7300   -1.6900 C   0  0  2  0  0  0  0  0  0  0  0  0
   20.5440  -14.1720   -1.8270 C   0  0  1  0  0  0  0  0  0  0  0  0
   19.0970  -14.2290   -2.3200 C   0  0  2  0  0  0  0  0  0  0  0  0
   18.2680  -13.3590   -1.4080 C   0  0  1  0  0  0  0  0  0  0  0  0
   18.7550  -11.9290   -1.5600 C   0  0  2  0  0  0  0  0  0  0  0  0
   20.0880  -11.8490   -1.0620 O   0  0  0  0  0  0  0  0  0  0  0  0
   22.2030  -12.7210   -0.7470 C   0  0  0  0  0  0  0  0  0  0  0  0
   24.2820  -11.3740   -0.7310 C   0  0  0  0  0  0  0  0  0  0  0  0
   24.9700  -10.1490   -0.6320 C   0  0  0  0  0  0  0  0  0  0  0  0
   26.3230  -10.0760   -0.2290 C   0  0  0  0  0  0  0  0  0  0  0  0
   26.9750  -11.2500    0.0740 C   0  0  0  0  0  0  0  0  0  0  0  0
   28.4240  -11.1850    0.5270 C   0  0  0  0  0  0  0  0  0  0  0  0
   26.3240  -12.4710    0.0040 C   0  0  0  0  0  0  0  0  0  0  0  0
   24.9840  -12.5290   -0.3950 C   0  0  0  0  0  0  0  0  0  0  0  0
   18.6410  -15.6260   -2.2490 O   0  0  0  0  0  0  0  0  0  0  0  0
   18.9290  -15.9710   -1.3800 H   0  0  0  0  0  0  0  0  0  0  0  0
   21.4320  -14.8860   -2.7420 O   0  0  0  0  0  0  0  0  0  0  0  0
   21.4620  -15.8400   -2.4350 H   0  0  0  0  0  0  0  0  0  0  0  0
   16.8490  -13.4680   -1.6790 O   0  0  0  0  0  0  0  0  0  0  0  0
   16.5570  -12.7060   -2.2110 H   0  0  0  0  0  0  0  0  0  0  0  0
   17.9860  -10.9920   -0.6530 C   0  0  0  0  0  0  0  0  0  0  0  0
   16.7720  -10.5860   -1.3690 O   0  0  0  0  0  0  0  0  0  0  0  0
   16.7020   -9.6130   -1.2440 H   0  0  0  0  0  0  0  0  0  0  0  0
  1 11  1  0  0  0  0
  1 12  1  1  0  0  0
  2  1  1  0  0  0  0
  3  2  1  0  0  0  0
  4  2  1  0  0  0  0
  4  5  1  0  0  0  0
  5 10  1  0  0  0  0
  5 11  1  1  0  0  0
  6  5  1  6  0  0  0
  7 19  1  1  0  0  0
  7  6  1  0  0  0  0
  7  8  1  0  0  0  0
  8 23  1  6  0  0  0
  9  8  1  0  0  0  0
  9 10  1  0  0  0  0
  9 25  1  1  0  0  0
 12 13  2  0  0  0  0
 12 18  1  0  0  0  0
 13 14  1  0  0  0  0
 14 15  2  0  0  0  0
 15 16  1  0  0  0  0
 17 15  1  0  0  0  0
 18 17  2  0  0  0  0
 19 20  1  0  0  0  0
 21 22  1  0  0  0  0
 21  6  1  0  0  0  0
 24 23  1  0  0  0  0
 26 27  1  0  0  0  0
 26 25  1  0  0  0  0
M  END
>  <minimizedAffinity>
-7.35024118

$$$$

 OpenBabel12271915443D

 27 29  0  0  1  0  0  0  0  0999 V2000
   22.0400  -13.4270   -1.4510 C   0  0  1  0  0  0  0  0  0  0  0  0
   21.3750  -13.4150   -0.1780 N   0  0  0  0  0  0  0  0  0  0  0  0
   21.5320  -14.2970    0.4190 H   0  0  0  0  0  0  0  0  0  0  0  0
   19.8980  -13.5750   -0.4940 O   0  0  0  0  0  0  0  0  0  0  0  0
   19.8200  -13.2210   -1.9190 C   0  0  2  0  0  0  0  0  0  0  0  0
   18.6920  -12.2230   -2.2050 C   0  0  1  0  0  0  0  0  0  0  0  0
   17.3390  -12.9180   -2.3660 C   0  0  2  0  0  0  0  0  0  0  0  0
   17.5000  -13.9970   -3.4100 C   0  0  1  0  0  0  0  0  0  0  0  0
   18.4860  -15.0180   -2.8730 C   0  0  2  0  0  0  0  0  0  0  0  0
   19.7650  -14.3980   -2.7590 O   0  0  0  0  0  0  0  0  0  0  0  0
   21.1180  -12.5860   -2.2910 C   0  0  0  0  0  0  0  0  0  0  0  0
   23.3640  -12.7500   -1.2590 C   0  0  0  0  0  0  0  0  0  0  0  0
   24.0430  -12.7950   -0.0250 C   0  0  0  0  0  0  0  0  0  0  0  0
   25.2810  -12.1430    0.1760 C   0  0  0  0  0  0  0  0  0  0  0  0
   25.8280  -11.4460   -0.8770 C   0  0  0  0  0  0  0  0  0  0  0  0
   27.1670  -10.7560   -0.6800 C   0  0  0  0  0  0  0  0  0  0  0  0
   25.1970  -11.3960   -2.1090 C   0  0  0  0  0  0  0  0  0  0  0  0
   23.9720  -12.0470   -2.2960 C   0  0  0  0  0  0  0  0  0  0  0  0
   16.3570  -11.9170   -2.8130 O   0  0  0  0  0  0  0  0  0  0  0  0
   16.7870  -11.4010   -3.5230 H   0  0  0  0  0  0  0  0  0  0  0  0
   18.6490  -11.2520   -1.1130 O   0  0  0  0  0  0  0  0  0  0  0  0
   18.3520  -10.3800   -1.5100 H   0  0  0  0  0  0  0  0  0  0  0  0
   16.2380  -14.6130   -3.7660 O   0  0  0  0  0  0  0  0  0  0  0  0
   16.1460  -15.4650   -3.3030 H   0  0  0  0  0  0  0  0  0  0  0  0
   18.7230  -16.1270   -3.8770 C   0  0  0  0  0  0  0  0  0  0  0  0
   17.5330  -16.9830   -3.8750 O   0  0  0  0  0  0  0  0  0  0  0  0
   17.8690  -17.9070   -3.8500 H   0  0  0  0  0  0  0  0  0  0  0  0
  1 12  1  1  0  0  0
  1  2  1  0  0  0  0
  2  3  1  0  0  0  0
  4  2  1  0  0  0  0
  5 11  1  6  0  0  0
  5  4  1  0  0  0  0
  6  5  1  1  0  0  0
  6 21  1  0  0  0  0
  7 19  1  6  0  0  0
  7  6  1  0  0  0  0
  8 23  1  1  0  0  0
  8  9  1  0  0  0  0
  8  7  1  0  0  0  0
  9 25  1  6  0  0  0
  9 10  1  0  0  0  0
 10  5  1  0  0  0  0
 11  1  1  0  0  0  0
 12 13  2  0  0  0  0
 13 14  1  0  0  0  0
 15 16  1  0  0  0  0
 15 14  2  0  0  0  0
 17 15  1  0  0  0  0
 18 17  2  0  0  0  0
 18 12  1  0  0  0  0
 20 19  1  0  0  0  0
 22 21  1  0  0  0  0
 23 24  1  0  0  0  0
 25 26  1  0  0  0  0
 26 27  1  0  0  0  0
M  END
>  <minimizedAffinity>
-7.28378057

$$$$

 OpenBabel12271915443D

 27 29  0  0  1  0  0  0  0  0999 V2000
   23.0350  -12.8050   -1.0480 C   0  0  1  0  0  0  0  0  0  0  0  0
   22.1900  -12.5530    0.0860 N   0  0  0  0  0  0  0  0  0  0  0  0
   22.1520  -13.3540    0.8040 H   0  0  0  0  0  0  0  0  0  0  0  0
   20.7690  -12.6170   -0.4490 O   0  0  0  0  0  0  0  0  0  0  0  0
   20.9510  -12.4590   -1.9000 C   0  0  2  0  0  0  0  0  0  0  0  0
   20.0010  -11.4090   -2.4880 C   0  0  1  0  0  0  0  0  0  0  0  0
   18.6170  -11.9890   -2.7860 C   0  0  2  0  0  0  0  0  0  0  0  0
   18.8100  -13.2130   -3.6480 C   0  0  1  0  0  0  0  0  0  0  0  0
   19.5790  -14.2380   -2.8330 C   0  0  2  0  0  0  0  0  0  0  0  0
   20.8880  -13.7310   -2.5870 O   0  0  0  0  0  0  0  0  0  0  0  0
   22.3530  -12.0070   -2.1260 C   0  0  0  0  0  0  0  0  0  0  0  0
   24.3830  -12.2350   -0.7240 C   0  0  0  0  0  0  0  0  0  0  0  0
   25.4470  -13.0560   -0.2980 C   0  0  0  0  0  0  0  0  0  0  0  0
   26.7160  -12.5300    0.0320 C   0  0  0  0  0  0  0  0  0  0  0  0
   26.9040  -11.1700   -0.0710 C   0  0  0  0  0  0  0  0  0  0  0  0
   28.2690  -10.5930    0.2630 C   0  0  0  0  0  0  0  0  0  0  0  0
   25.8860  -10.3360   -0.5020 C   0  0  0  0  0  0  0  0  0  0  0  0
   24.6330  -10.8690   -0.8280 C   0  0  0  0  0  0  0  0  0  0  0  0
   17.8370  -10.9730   -3.5080 O   0  0  0  0  0  0  0  0  0  0  0  0
   18.4260  -10.6030   -4.1950 H   0  0  0  0  0  0  0  0  0  0  0  0
   19.9040  -10.2950   -1.5470 O   0  0  0  0  0  0  0  0  0  0  0  0
   19.7740   -9.4630   -2.0910 H   0  0  0  0  0  0  0  0  0  0  0  0
   17.5540  -13.7520   -4.1300 O   0  0  0  0  0  0  0  0  0  0  0  0
   17.2960  -14.5190   -3.5870 H   0  0  0  0  0  0  0  0  0  0  0  0
   19.8370  -15.4940   -3.6410 C   0  0  0  0  0  0  0  0  0  0  0  0
   18.6960  -16.3900   -3.4340 O   0  0  0  0  0  0  0  0  0  0  0  0
   19.0820  -17.2800   -3.2650 H   0  0  0  0  0  0  0  0  0  0  0  0
  1 12  1  1  0  0  0
  1  2  1  0  0  0  0
  2  3  1  0  0  0  0
  4  2  1  0  0  0  0
  5 11  1  6  0  0  0
  5  4  1  0  0  0  0
  6  5  1  1  0  0  0
  6 21  1  0  0  0  0
  7 19  1  6  0  0  0
  7  6  1  0  0  0  0
  8 23  1  1  0  0  0
  8  9  1  0  0  0  0
  8  7  1  0  0  0  0
  9 25  1  6  0  0  0
  9 10  1  0  0  0  0
 10  5  1  0  0  0  0
 11  1  1  0  0  0  0
 12 13  1  0  0  0  0
 13 14  2  0  0  0  0
 15 14  1  0  0  0  0
 15 16  1  0  0  0  0
 17 15  2  0  0  0  0
 18 12  2  0  0  0  0
 18 17  1  0  0  0  0
 20 19  1  0  0  0  0
 22 21  1  0  0  0  0
 23 24  1  0  0  0  0
 25 26  1  0  0  0  0
 26 27  1  0  0  0  0
M  END
>  <minimizedAffinity>
-7.06279945

$$$$

 OpenBabel12271915443D

 27 29  0  0  1  0  0  0  0  0999 V2000
   26.1950  -10.9450   -0.4700 C   0  0  1  0  0  0  0  0  0  0  0  0
   26.3720  -11.5560   -1.7580 N   0  0  0  0  0  0  0  0  0  0  0  0
   26.4190  -10.8640   -2.5810 H   0  0  0  0  0  0  0  0  0  0  0  0
   25.0480  -12.2350   -2.0650 O   0  0  0  0  0  0  0  0  0  0  0  0
   24.4020  -12.3210   -0.7470 C   0  0  2  0  0  0  0  0  0  0  0  0
   23.8490  -13.7240   -0.4680 C   0  0  1  0  0  0  0  0  0  0  0  0
   22.4680  -13.9310   -1.0900 C   0  0  2  0  0  0  0  0  0  0  0  0
   21.5810  -12.8040   -0.6230 C   0  0  1  0  0  0  0  0  0  0  0  0
   22.1490  -11.5080   -1.1720 C   0  0  2  0  0  0  0  0  0  0  0  0
   23.4180  -11.2760   -0.5650 O   0  0  0  0  0  0  0  0  0  0  0  0
   25.4390  -12.0090    0.2770 C   0  0  0  0  0  0  0  0  0  0  0  0
   27.5630  -10.7460    0.1100 C   0  0  0  0  0  0  0  0  0  0  0  0
   28.1100   -9.4580    0.2840 C   0  0  0  0  0  0  0  0  0  0  0  0
   29.4060   -9.2560    0.8090 C   0  0  0  0  0  0  0  0  0  0  0  0
   30.1470  -10.3640    1.1570 C   0  0  0  0  0  0  0  0  0  0  0  0
   31.5360  -10.1600    1.7400 C   0  0  0  0  0  0  0  0  0  0  0  0
   29.6350  -11.6420    1.0150 C   0  0  0  0  0  0  0  0  0  0  0  0
   28.3490  -11.8290    0.4960 C   0  0  0  0  0  0  0  0  0  0  0  0
   21.9410  -15.2230   -0.6240 O   0  0  0  0  0  0  0  0  0  0  0  0
   22.1110  -15.2640    0.3380 H   0  0  0  0  0  0  0  0  0  0  0  0
   24.8020  -14.7060   -0.9820 O   0  0  0  0  0  0  0  0  0  0  0  0
   24.7520  -15.5050   -0.3780 H   0  0  0  0  0  0  0  0  0  0  0  0
   20.1990  -12.9870   -1.0170 O   0  0  0  0  0  0  0  0  0  0  0  0
   20.0060  -12.4410   -1.8010 H   0  0  0  0  0  0  0  0  0  0  0  0
   21.3250  -10.3180   -0.7230 C   0  0  0  0  0  0  0  0  0  0  0  0
   20.2500  -10.1340   -1.7030 O   0  0  0  0  0  0  0  0  0  0  0  0
   20.2280   -9.1690   -1.8960 H   0  0  0  0  0  0  0  0  0  0  0  0
  1 12  1  1  0  0  0
  1 11  1  0  0  0  0
  2  1  1  0  0  0  0
  3  2  1  0  0  0  0
  4  2  1  0  0  0  0
  4  5  1  0  0  0  0
  5 10  1  0  0  0  0
  5 11  1  1  0  0  0
  6  5  1  6  0  0  0
  7 19  1  1  0  0  0
  7  8  1  0  0  0  0
  7  6  1  0  0  0  0
  8 23  1  6  0  0  0
  9 25  1  1  0  0  0
  9  8  1  0  0  0  0
  9 10  1  0  0  0  0
 12 13  2  0  0  0  0
 12 18  1  0  0  0  0
 13 14  1  0  0  0  0
 14 15  2  0  0  0  0
 15 16  1  0  0  0  0
 17 15  1  0  0  0  0
 18 17  2  0  0  0  0
 19 20  1  0  0  0  0
 21  6  1  0  0  0  0
 21 22  1  0  0  0  0
 24 23  1  0  0  0  0
 26 25  1  0  0  0  0
 27 26  1  0  0  0  0
M  END
>  <minimizedAffinity>
-6.96995926

$$$$

 OpenBabel12271915443D

 27 29  0  0  1  0  0  0  0  0999 V2000
   22.5010  -11.5240   -2.5040 C   0  0  1  0  0  0  0  0  0  0  0  0
   22.7440  -11.3100   -1.1050 N   0  0  0  0  0  0  0  0  0  0  0  0
   22.0920  -10.5890   -0.6410 H   0  0  0  0  0  0  0  0  0  0  0  0
   24.0590  -10.5510   -1.0370 O   0  0  0  0  0  0  0  0  0  0  0  0
   24.6530  -10.7930   -2.3600 C   0  0  2  0  0  0  0  0  0  0  0  0
   26.1180  -11.2340   -2.2620 C   0  0  1  0  0  0  0  0  0  0  0  0
   27.0680  -10.0440   -2.1190 C   0  0  2  0  0  0  0  0  0  0  0  0
   26.7770   -9.0880   -3.2500 C   0  0  1  0  0  0  0  0  0  0  0  0
   25.3590   -8.5760   -3.0720 C   0  0  2  0  0  0  0  0  0  0  0  0
   24.4570   -9.6660   -3.2470 O   0  0  0  0  0  0  0  0  0  0  0  0
   23.8720  -11.8870   -3.0050 C   0  0  0  0  0  0  0  0  0  0  0  0
   21.5610  -12.6870   -2.6110 C   0  0  0  0  0  0  0  0  0  0  0  0
   20.3860  -12.6170   -3.3850 C   0  0  0  0  0  0  0  0  0  0  0  0
   19.4800  -13.6980   -3.4770 C   0  0  0  0  0  0  0  0  0  0  0  0
   19.7700  -14.8500   -2.7820 C   0  0  0  0  0  0  0  0  0  0  0  0
   18.8130  -16.0270   -2.8870 C   0  0  0  0  0  0  0  0  0  0  0  0
   20.9240  -14.9600   -2.0260 C   0  0  0  0  0  0  0  0  0  0  0  0
   21.8140  -13.8840   -1.9440 C   0  0  0  0  0  0  0  0  0  0  0  0
   28.4490  -10.5430   -2.2140 O   0  0  0  0  0  0  0  0  0  0  0  0
   28.4710  -11.1640   -2.9690 H   0  0  0  0  0  0  0  0  0  0  0  0
   26.2500  -12.1420   -1.1230 O   0  0  0  0  0  0  0  0  0  0  0  0
   26.9660  -12.8030   -1.3580 H   0  0  0  0  0  0  0  0  0  0  0  0
   27.7310   -7.9990   -3.3140 O   0  0  0  0  0  0  0  0  0  0  0  0
   27.3440   -7.2010   -2.9110 H   0  0  0  0  0  0  0  0  0  0  0  0
   24.9780   -7.6250   -4.1870 C   0  0  0  0  0  0  0  0  0  0  0  0
   25.6710   -8.0710   -5.4000 O   0  0  0  0  0  0  0  0  0  0  0  0
   26.0510   -7.2580   -5.8040 H   0  0  0  0  0  0  0  0  0  0  0  0
  1 12  1  1  0  0  0
  1  2  1  0  0  0  0
  2  4  1  0  0  0  0
  2  3  1  0  0  0  0
  5 11  1  6  0  0  0
  5  4  1  0  0  0  0
  6  5  1  1  0  0  0
  6  7  1  0  0  0  0
  6 21  1  0  0  0  0
  7 19  1  6  0  0  0
  8 23  1  1  0  0  0
  8  9  1  0  0  0  0
  8  7  1  0  0  0  0
  9 25  1  6  0  0  0
 10  9  1  0  0  0  0
 10  5  1  0  0  0  0
 11  1  1  0  0  0  0
 12 18  2  0  0  0  0
 13 12  1  0  0  0  0
 14 13  2  0  0  0  0
 14 15  1  0  0  0  0
 15 17  2  0  0  0  0
 16 15  1  0  0  0  0
 17 18  1  0  0  0  0
 20 19  1  0  0  0  0
 22 21  1  0  0  0  0
 23 24  1  0  0  0  0
 26 25  1  0  0  0  0
 27 26  1  0  0  0  0
M  END
>  <minimizedAffinity>
-6.93065739

$$$$
