
 OpenBabel12271915483D

 32 35  0  0  1  0  0  0  0  0999 V2000
   22.7820  -14.6490   -1.7270 C   0  0  1  0  0  0  0  0  0  0  0  0
   23.2470  -15.6760   -2.6700 N   0  0  0  0  0  0  0  0  0  0  0  0
   23.9050  -15.2460   -3.3070 H   0  0  0  0  0  0  0  0  0  0  0  0
   22.4800  -16.0940   -3.2280 H   0  0  0  0  0  0  0  0  0  0  0  0
   23.7640  -16.4060   -2.1330 H   0  0  0  0  0  0  0  0  0  0  0  0
   21.8340  -15.1900   -0.6720 C   0  0  0  0  0  0  0  0  0  0  0  0
   20.4860  -14.6070   -0.7910 C   0  0  0  0  0  0  0  0  0  0  0  0
   19.5200  -15.0260   -1.6990 C   0  0  0  0  0  0  0  0  0  0  0  0
   19.4970  -16.0050   -2.6830 C   0  0  0  0  0  0  0  0  0  0  0  0
   18.3340  -16.1570   -3.4440 C   0  0  0  0  0  0  0  0  0  0  0  0
   17.2240  -15.3530   -3.2290 C   0  0  0  0  0  0  0  0  0  0  0  0
   17.2640  -14.3650   -2.2210 C   0  0  0  0  0  0  0  0  0  0  0  0
   18.4270  -14.2290   -1.4700 C   0  0  0  0  0  0  0  0  0  0  0  0
   18.7020  -13.3300   -0.4330 N   0  0  0  0  0  0  0  0  0  0  0  0
   18.1040  -12.6190   -0.0610 H   0  0  0  0  0  0  0  0  0  0  0  0
   19.9850  -13.5900   -0.0210 C   0  0  0  0  0  0  0  0  0  0  0  0
   24.0080  -14.1820   -0.9180 C   0  0  0  0  0  0  0  0  0  0  0  0
   23.9110  -12.7160   -0.6430 O   0  0  0  0  0  0  0  0  0  0  0  0
   24.4050  -11.5160   -0.7010 C   0  0  0  0  0  0  0  0  0  0  0  0
   25.7160  -11.5830   -0.2480 C   0  0  0  0  0  0  0  0  0  0  0  0
   26.5590  -10.4670   -0.2010 C   0  0  0  0  0  0  0  0  0  0  0  0
   26.0260   -9.2950   -0.6260 C   0  0  0  0  0  0  0  0  0  0  0  0
   24.7370   -9.1790   -1.0760 N   0  0  0  0  0  0  0  0  0  0  0  0
   23.9300  -10.3210   -1.0930 C   0  0  0  0  0  0  0  0  0  0  0  0
   27.9390  -10.5830    0.2830 C   0  0  0  0  0  0  0  0  0  0  0  0
   28.5600  -11.7170    0.6180 C   0  0  0  0  0  0  0  0  0  0  0  0
   29.9420  -11.7760    1.0990 C   0  0  0  0  0  0  0  0  0  0  0  0
   30.9010  -10.9410    0.4930 C   0  0  0  0  0  0  0  0  0  0  0  0
   32.1920  -10.9730    0.9180 C   0  0  0  0  0  0  0  0  0  0  0  0
   32.5750  -11.7880    1.9120 N   0  0  0  0  0  0  0  0  0  0  0  0
   31.6550  -12.5930    2.4960 C   0  0  0  0  0  0  0  0  0  0  0  0
   30.3640  -12.6140    2.1260 C   0  0  0  0  0  0  0  0  0  0  0  0
  1 17  1  1  0  0  0
  1  6  1  0  0  0  0
  2  5  1  0  0  0  0
  2  1  1  0  0  0  0
  3  2  1  0  0  0  0
  4  2  1  0  0  0  0
  7  6  1  0  0  0  0
  7 16  2  0  0  0  0
  8 13  1  0  0  0  0
  8  7  1  0  0  0  0
  9  8  2  0  0  0  0
 10 11  2  0  0  0  0
 10  9  1  0  0  0  0
 11 12  1  0  0  0  0
 12 13  2  0  0  0  0
 13 14  1  0  0  0  0
 14 15  1  0  0  0  0
 14 16  1  0  0  0  0
 17 18  1  0  0  0  0
 19 18  1  0  0  0  0
 19 20  2  0  0  0  0
 20 21  1  0  0  0  0
 21 25  1  0  0  0  0
 22 21  2  0  0  0  0
 23 22  1  0  0  0  0
 24 23  2  0  0  0  0
 24 19  1  0  0  0  0
 25 26  2  0  0  0  0
 26 27  1  0  0  0  0
 27 32  2  0  0  0  0
 28 29  2  0  0  0  0
 28 27  1  0  0  0  0
 29 30  1  0  0  0  0
 30 31  2  0  0  0  0
 32 31  1  0  0  0  0
M  END
>  <minimizedAffinity>
-8.66805458

$$$$

 OpenBabel12271915483D

 32 35  0  0  1  0  0  0  0  0999 V2000
   16.9860  -14.6620   -2.2640 C   0  0  1  0  0  0  0  0  0  0  0  0
   15.8900  -15.5300   -2.7160 N   0  0  0  0  0  0  0  0  0  0  0  0
   15.0230  -15.0140   -2.6350 H   0  0  0  0  0  0  0  0  0  0  0  0
   15.8030  -16.4000   -2.1590 H   0  0  0  0  0  0  0  0  0  0  0  0
   16.0340  -15.7420   -3.7270 H   0  0  0  0  0  0  0  0  0  0  0  0
   18.3540  -15.3050   -2.4000 C   0  0  0  0  0  0  0  0  0  0  0  0
   19.3190  -14.7620   -1.4260 C   0  0  0  0  0  0  0  0  0  0  0  0
   20.6990  -14.7700   -1.5930 C   0  0  0  0  0  0  0  0  0  0  0  0
   21.5360  -15.2370   -2.5970 C   0  0  0  0  0  0  0  0  0  0  0  0
   22.9170  -15.0900   -2.4350 C   0  0  0  0  0  0  0  0  0  0  0  0
   23.4480  -14.4930   -1.3000 C   0  0  0  0  0  0  0  0  0  0  0  0
   22.5810  -14.0200   -0.2900 C   0  0  0  0  0  0  0  0  0  0  0  0
   21.2100  -14.1710   -0.4690 C   0  0  0  0  0  0  0  0  0  0  0  0
   20.1670  -13.7900    0.3840 N   0  0  0  0  0  0  0  0  0  0  0  0
   20.2350  -13.3510    1.2800 H   0  0  0  0  0  0  0  0  0  0  0  0
   19.0000  -14.1610   -0.2370 C   0  0  0  0  0  0  0  0  0  0  0  0
   17.0440  -13.4590   -3.2260 C   0  0  0  0  0  0  0  0  0  0  0  0
   17.0940  -12.1840   -2.4480 O   0  0  0  0  0  0  0  0  0  0  0  0
   17.7650  -11.2380   -1.8630 C   0  0  0  0  0  0  0  0  0  0  0  0
   19.0570  -11.2670   -2.3730 C   0  0  0  0  0  0  0  0  0  0  0  0
   20.0480  -10.3610   -1.9790 C   0  0  0  0  0  0  0  0  0  0  0  0
   19.6810   -9.4350   -1.0590 C   0  0  0  0  0  0  0  0  0  0  0  0
   18.4220   -9.3700   -0.5250 N   0  0  0  0  0  0  0  0  0  0  0  0
   17.4690  -10.3050   -0.9410 C   0  0  0  0  0  0  0  0  0  0  0  0
   21.4000  -10.4270   -2.5450 C   0  0  0  0  0  0  0  0  0  0  0  0
   22.4910  -10.8790   -1.9210 C   0  0  0  0  0  0  0  0  0  0  0  0
   23.8200  -10.9200   -2.5340 C   0  0  0  0  0  0  0  0  0  0  0  0
   23.9170  -10.8150   -3.9350 C   0  0  0  0  0  0  0  0  0  0  0  0
   25.1380  -10.8490   -4.5330 C   0  0  0  0  0  0  0  0  0  0  0  0
   26.2600  -10.9810   -3.8110 N   0  0  0  0  0  0  0  0  0  0  0  0
   26.1700  -11.0850   -2.4640 C   0  0  0  0  0  0  0  0  0  0  0  0
   24.9980  -11.0590   -1.8080 C   0  0  0  0  0  0  0  0  0  0  0  0
  1 17  1  6  0  0  0
  2  3  1  0  0  0  0
  2  1  1  0  0  0  0
  2  4  1  0  0  0  0
  5  2  1  0  0  0  0
  6  1  1  0  0  0  0
  6  7  1  0  0  0  0
  7 16  2  0  0  0  0
  8  7  1  0  0  0  0
  8 13  2  0  0  0  0
  9 10  2  0  0  0  0
  9  8  1  0  0  0  0
 10 11  1  0  0  0  0
 11 12  2  0  0  0  0
 13 12  1  0  0  0  0
 13 14  1  0  0  0  0
 14 15  1  0  0  0  0
 16 14  1  0  0  0  0
 17 18  1  0  0  0  0
 18 19  1  0  0  0  0
 19 24  2  0  0  0  0
 20 21  2  0  0  0  0
 20 19  1  0  0  0  0
 21 22  1  0  0  0  0
 22 23  2  0  0  0  0
 24 23  1  0  0  0  0
 25 21  1  0  0  0  0
 25 26  2  0  0  0  0
 27 26  1  0  0  0  0
 27 32  2  0  0  0  0
 28 27  1  0  0  0  0
 29 28  2  0  0  0  0
 29 30  1  0  0  0  0
 30 31  2  0  0  0  0
 31 32  1  0  0  0  0
M  END
>  <minimizedAffinity>
-8.58412647

$$$$

 OpenBabel12271915483D

 32 35  0  0  1  0  0  0  0  0999 V2000
   22.8530  -14.8780   -1.8360 C   0  0  1  0  0  0  0  0  0  0  0  0
   23.3590  -15.8260   -2.8380 N   0  0  0  0  0  0  0  0  0  0  0  0
   24.0040  -15.3340   -3.4420 H   0  0  0  0  0  0  0  0  0  0  0  0
   22.6110  -16.2360   -3.4260 H   0  0  0  0  0  0  0  0  0  0  0  0
   23.9000  -16.5700   -2.3430 H   0  0  0  0  0  0  0  0  0  0  0  0
   21.9190  -15.5170   -0.8240 C   0  0  0  0  0  0  0  0  0  0  0  0
   20.6200  -14.8250   -0.7580 C   0  0  0  0  0  0  0  0  0  0  0  0
   19.5590  -15.0500   -1.6290 C   0  0  0  0  0  0  0  0  0  0  0  0
   19.3850  -15.8870   -2.7230 C   0  0  0  0  0  0  0  0  0  0  0  0
   18.1620  -15.8520   -3.3990 C   0  0  0  0  0  0  0  0  0  0  0  0
   17.1410  -15.0040   -2.9950 C   0  0  0  0  0  0  0  0  0  0  0  0
   17.3350  -14.1620   -1.8780 C   0  0  0  0  0  0  0  0  0  0  0  0
   18.5560  -14.2120   -1.2140 C   0  0  0  0  0  0  0  0  0  0  0  0
   18.9790  -13.4790   -0.0990 N   0  0  0  0  0  0  0  0  0  0  0  0
   18.4710  -12.7800    0.4070 H   0  0  0  0  0  0  0  0  0  0  0  0
   20.2620  -13.8840    0.1710 C   0  0  0  0  0  0  0  0  0  0  0  0
   24.0580  -14.4180   -0.9900 C   0  0  0  0  0  0  0  0  0  0  0  0
   24.3820  -12.9920   -1.2950 O   0  0  0  0  0  0  0  0  0  0  0  0
   24.2580  -11.7230   -1.0470 C   0  0  0  0  0  0  0  0  0  0  0  0
   22.9000  -11.4290   -1.0450 C   0  0  0  0  0  0  0  0  0  0  0  0
   22.4040  -10.1470   -0.7840 C   0  0  0  0  0  0  0  0  0  0  0  0
   23.3260   -9.1870   -0.5270 C   0  0  0  0  0  0  0  0  0  0  0  0
   24.6740   -9.4280   -0.5230 N   0  0  0  0  0  0  0  0  0  0  0  0
   25.1230  -10.7230   -0.8020 C   0  0  0  0  0  0  0  0  0  0  0  0
   20.9610   -9.8820   -0.7890 C   0  0  0  0  0  0  0  0  0  0  0  0
   20.0470  -10.5240   -1.5220 C   0  0  0  0  0  0  0  0  0  0  0  0
   18.6160  -10.2160   -1.4910 C   0  0  0  0  0  0  0  0  0  0  0  0
   18.0660   -9.6960   -0.3030 C   0  0  0  0  0  0  0  0  0  0  0  0
   16.7400   -9.3990   -0.2450 C   0  0  0  0  0  0  0  0  0  0  0  0
   15.9390   -9.5920   -1.3020 N   0  0  0  0  0  0  0  0  0  0  0  0
   16.4650  -10.0940   -2.4450 C   0  0  0  0  0  0  0  0  0  0  0  0
   17.7640  -10.4090   -2.5730 C   0  0  0  0  0  0  0  0  0  0  0  0
  1 17  1  1  0  0  0
  1  6  1  0  0  0  0
  2  5  1  0  0  0  0
  2  1  1  0  0  0  0
  3  2  1  0  0  0  0
  4  2  1  0  0  0  0
  6  7  1  0  0  0  0
  7 16  2  0  0  0  0
  8 13  1  0  0  0  0
  8  7  1  0  0  0  0
  9  8  2  0  0  0  0
 10 11  2  0  0  0  0
 10  9  1  0  0  0  0
 11 12  1  0  0  0  0
 12 13  2  0  0  0  0
 13 14  1  0  0  0  0
 14 16  1  0  0  0  0
 14 15  1  0  0  0  0
 18 19  1  0  0  0  0
 18 17  1  0  0  0  0
 19 20  2  0  0  0  0
 19 24  1  0  0  0  0
 20 21  1  0  0  0  0
 21 22  2  0  0  0  0
 22 23  1  0  0  0  0
 24 23  2  0  0  0  0
 25 21  1  0  0  0  0
 26 27  1  0  0  0  0
 26 25  2  0  0  0  0
 27 28  2  0  0  0  0
 28 29  1  0  0  0  0
 30 29  2  0  0  0  0
 31 30  1  0  0  0  0
 32 31  2  0  0  0  0
 32 27  1  0  0  0  0
M  END
>  <minimizedAffinity>
-8.56807995

$$$$

 OpenBabel12271915483D

 32 35  0  0  1  0  0  0  0  0999 V2000
   25.3890  -10.3910   -0.6990 C   0  0  1  0  0  0  0  0  0  0  0  0
   26.3810   -9.6880    0.1260 N   0  0  0  0  0  0  0  0  0  0  0  0
   27.0210   -9.2050   -0.4910 H   0  0  0  0  0  0  0  0  0  0  0  0
   26.9300  -10.3230    0.7330 H   0  0  0  0  0  0  0  0  0  0  0  0
   25.8850   -8.9630    0.6900 H   0  0  0  0  0  0  0  0  0  0  0  0
   24.3270  -11.1040    0.1190 C   0  0  0  0  0  0  0  0  0  0  0  0
   24.1560  -12.5060   -0.3000 C   0  0  0  0  0  0  0  0  0  0  0  0
   22.9290  -13.1360   -0.4740 C   0  0  0  0  0  0  0  0  0  0  0  0
   21.6130  -12.7180   -0.3240 C   0  0  0  0  0  0  0  0  0  0  0  0
   20.5900  -13.6370   -0.5760 C   0  0  0  0  0  0  0  0  0  0  0  0
   20.8730  -14.9380   -0.9680 C   0  0  0  0  0  0  0  0  0  0  0  0
   22.2170  -15.3440   -1.1190 C   0  0  0  0  0  0  0  0  0  0  0  0
   23.2230  -14.4170   -0.8670 C   0  0  0  0  0  0  0  0  0  0  0  0
   24.6100  -14.5840   -0.9440 N   0  0  0  0  0  0  0  0  0  0  0  0
   25.1170  -15.4130   -1.1860 H   0  0  0  0  0  0  0  0  0  0  0  0
   25.1690  -13.3800   -0.5960 C   0  0  0  0  0  0  0  0  0  0  0  0
   24.6000   -9.3210   -1.4790 C   0  0  0  0  0  0  0  0  0  0  0  0
   23.6660   -9.9760   -2.4440 O   0  0  0  0  0  0  0  0  0  0  0  0
   22.8430   -9.9130   -3.4470 C   0  0  0  0  0  0  0  0  0  0  0  0
   21.7980  -10.7900   -3.1850 C   0  0  0  0  0  0  0  0  0  0  0  0
   20.7130  -10.9550   -4.0530 C   0  0  0  0  0  0  0  0  0  0  0  0
   20.7280  -10.2060   -5.1820 C   0  0  0  0  0  0  0  0  0  0  0  0
   21.7380   -9.3320   -5.4860 N   0  0  0  0  0  0  0  0  0  0  0  0
   22.8080   -9.2100   -4.5930 C   0  0  0  0  0  0  0  0  0  0  0  0
   19.6290  -11.8920   -3.7350 C   0  0  0  0  0  0  0  0  0  0  0  0
   19.6020  -13.1930   -4.0380 C   0  0  0  0  0  0  0  0  0  0  0  0
   18.4900  -14.0830   -3.6990 C   0  0  0  0  0  0  0  0  0  0  0  0
   18.6910  -15.4740   -3.7910 C   0  0  0  0  0  0  0  0  0  0  0  0
   17.6780  -16.3270   -3.4810 C   0  0  0  0  0  0  0  0  0  0  0  0
   16.4820  -15.8670   -3.0860 N   0  0  0  0  0  0  0  0  0  0  0  0
   16.2850  -14.5300   -2.9980 C   0  0  0  0  0  0  0  0  0  0  0  0
   17.2400  -13.6320   -3.2890 C   0  0  0  0  0  0  0  0  0  0  0  0
  1 17  1  6  0  0  0
  1  6  1  0  0  0  0
  1  2  1  0  0  0  0
  2  5  1  0  0  0  0
  2  4  1  0  0  0  0
  3  2  1  0  0  0  0
  7  6  1  0  0  0  0
  8  9  1  0  0  0  0
  8  7  1  0  0  0  0
 10  9  2  0  0  0  0
 11 10  1  0  0  0  0
 12 11  2  0  0  0  0
 12 13  1  0  0  0  0
 13  8  2  0  0  0  0
 14 13  1  0  0  0  0
 14 16  1  0  0  0  0
 15 14  1  0  0  0  0
 16  7  2  0  0  0  0
 18 17  1  0  0  0  0
 19 20  1  0  0  0  0
 19 18  1  0  0  0  0
 21 25  1  0  0  0  0
 21 20  2  0  0  0  0
 22 21  1  0  0  0  0
 23 22  2  0  0  0  0
 23 24  1  0  0  0  0
 24 19  2  0  0  0  0
 26 25  2  0  0  0  0
 26 27  1  0  0  0  0
 27 32  1  0  0  0  0
 28 27  2  0  0  0  0
 28 29  1  0  0  0  0
 29 30  2  0  0  0  0
 30 31  1  0  0  0  0
 32 31  2  0  0  0  0
M  END
>  <minimizedAffinity>
-8.50812626

$$$$

 OpenBabel12271915483D

 32 35  0  0  1  0  0  0  0  0999 V2000
   24.1410   -8.3130   -0.9970 C   0  0  1  0  0  0  0  0  0  0  0  0
   24.6960   -6.9540   -1.0690 N   0  0  0  0  0  0  0  0  0  0  0  0
   25.2630   -6.7990   -0.2460 H   0  0  0  0  0  0  0  0  0  0  0  0
   23.9670   -6.2170   -1.1050 H   0  0  0  0  0  0  0  0  0  0  0  0
   25.3270   -6.9000   -1.8980 H   0  0  0  0  0  0  0  0  0  0  0  0
   23.3180   -8.6890   -2.2160 C   0  0  0  0  0  0  0  0  0  0  0  0
   21.9580   -9.1230   -1.8520 C   0  0  0  0  0  0  0  0  0  0  0  0
   21.1900  -10.0200   -2.5870 C   0  0  0  0  0  0  0  0  0  0  0  0
   21.4090  -10.7170   -3.7680 C   0  0  0  0  0  0  0  0  0  0  0  0
   20.3920  -11.5490   -4.2470 C   0  0  0  0  0  0  0  0  0  0  0  0
   19.1900  -11.6810   -3.5660 C   0  0  0  0  0  0  0  0  0  0  0  0
   18.9880  -10.9670   -2.3640 C   0  0  0  0  0  0  0  0  0  0  0  0
   20.0100  -10.1460   -1.8990 C   0  0  0  0  0  0  0  0  0  0  0  0
   20.0400   -9.3470   -0.7510 N   0  0  0  0  0  0  0  0  0  0  0  0
   19.3180   -9.2220   -0.0690 H   0  0  0  0  0  0  0  0  0  0  0  0
   21.2640   -8.7270   -0.7380 C   0  0  0  0  0  0  0  0  0  0  0  0
   25.3280   -9.2950   -1.0330 C   0  0  0  0  0  0  0  0  0  0  0  0
   24.9160  -10.6160   -0.4690 O   0  0  0  0  0  0  0  0  0  0  0  0
   24.8420  -11.9100   -0.5500 C   0  0  0  0  0  0  0  0  0  0  0  0
   23.5720  -12.2260   -1.0170 C   0  0  0  0  0  0  0  0  0  0  0  0
   23.1560  -13.5420   -1.2480 C   0  0  0  0  0  0  0  0  0  0  0  0
   24.0660  -14.5130   -0.9910 C   0  0  0  0  0  0  0  0  0  0  0  0
   25.3270  -14.2500   -0.5240 N   0  0  0  0  0  0  0  0  0  0  0  0
   25.6930  -12.9200   -0.2970 C   0  0  0  0  0  0  0  0  0  0  0  0
   21.8060  -13.8300   -1.7450 C   0  0  0  0  0  0  0  0  0  0  0  0
   20.8720  -14.5430   -1.1110 C   0  0  0  0  0  0  0  0  0  0  0  0
   19.5370  -14.8030   -1.6550 C   0  0  0  0  0  0  0  0  0  0  0  0
   19.4190  -15.6690   -2.7590 C   0  0  0  0  0  0  0  0  0  0  0  0
   18.1920  -15.9290   -3.2860 C   0  0  0  0  0  0  0  0  0  0  0  0
   17.0850  -15.3760   -2.7720 N   0  0  0  0  0  0  0  0  0  0  0  0
   17.1960  -14.5410   -1.7100 C   0  0  0  0  0  0  0  0  0  0  0  0
   18.3740  -14.2400   -1.1410 C   0  0  0  0  0  0  0  0  0  0  0  0
  1  6  1  6  0  0  0
  2  1  1  0  0  0  0
  2  3  1  0  0  0  0
  4  2  1  0  0  0  0
  5  2  1  0  0  0  0
  6  7  1  0  0  0  0
  7 16  2  0  0  0  0
  8 13  2  0  0  0  0
  8  7  1  0  0  0  0
  9  8  1  0  0  0  0
 10  9  2  0  0  0  0
 10 11  1  0  0  0  0
 11 12  2  0  0  0  0
 12 13  1  0  0  0  0
 13 14  1  0  0  0  0
 14 16  1  0  0  0  0
 14 15  1  0  0  0  0
 17  1  1  0  0  0  0
 17 18  1  0  0  0  0
 19 18  1  0  0  0  0
 19 24  2  0  0  0  0
 20 19  1  0  0  0  0
 21 20  2  0  0  0  0
 21 22  1  0  0  0  0
 22 23  2  0  0  0  0
 23 24  1  0  0  0  0
 25 21  1  0  0  0  0
 25 26  2  0  0  0  0
 27 32  1  0  0  0  0
 27 26  1  0  0  0  0
 28 27  2  0  0  0  0
 29 30  2  0  0  0  0
 29 28  1  0  0  0  0
 30 31  1  0  0  0  0
 31 32  2  0  0  0  0
M  END
>  <minimizedAffinity>
-8.47721958

$$$$

 OpenBabel12271915483D

 32 35  0  0  1  0  0  0  0  0999 V2000
   20.1380  -14.8610   -0.5980 C   0  0  1  0  0  0  0  0  0  0  0  0
   19.7950  -14.1460    0.6390 N   0  0  0  0  0  0  0  0  0  0  0  0
   20.1970  -14.6490    1.4180 H   0  0  0  0  0  0  0  0  0  0  0  0
   18.7730  -14.0680    0.7950 H   0  0  0  0  0  0  0  0  0  0  0  0
   20.2440  -13.2040    0.6100 H   0  0  0  0  0  0  0  0  0  0  0  0
   19.6420  -14.1630   -1.8510 C   0  0  0  0  0  0  0  0  0  0  0  0
   18.2740  -14.5770   -2.2090 C   0  0  0  0  0  0  0  0  0  0  0  0
   17.9640  -15.6500   -3.0370 C   0  0  0  0  0  0  0  0  0  0  0  0
   18.7350  -16.5750   -3.7280 C   0  0  0  0  0  0  0  0  0  0  0  0
   18.0820  -17.5420   -4.4980 C   0  0  0  0  0  0  0  0  0  0  0  0
   16.6980  -17.5850   -4.5770 C   0  0  0  0  0  0  0  0  0  0  0  0
   15.9290  -16.6380   -3.8640 C   0  0  0  0  0  0  0  0  0  0  0  0
   16.5940  -15.6850   -3.0990 C   0  0  0  0  0  0  0  0  0  0  0  0
   16.0550  -14.6540   -2.3200 N   0  0  0  0  0  0  0  0  0  0  0  0
   15.0900  -14.4220   -2.1890 H   0  0  0  0  0  0  0  0  0  0  0  0
   17.1190  -13.9850   -1.7700 C   0  0  0  0  0  0  0  0  0  0  0  0
   21.6730  -14.8260   -0.7360 C   0  0  0  0  0  0  0  0  0  0  0  0
   22.1790  -13.4470   -0.4650 O   0  0  0  0  0  0  0  0  0  0  0  0
   22.7190  -12.3360   -0.8700 C   0  0  0  0  0  0  0  0  0  0  0  0
   24.0600  -12.3690   -0.5090 C   0  0  0  0  0  0  0  0  0  0  0  0
   24.9510  -11.3350   -0.8150 C   0  0  0  0  0  0  0  0  0  0  0  0
   24.4370  -10.2800   -1.4940 C   0  0  0  0  0  0  0  0  0  0  0  0
   23.1210  -10.2020   -1.8670 N   0  0  0  0  0  0  0  0  0  0  0  0
   22.2650  -11.2540   -1.5280 C   0  0  0  0  0  0  0  0  0  0  0  0
   26.3610  -11.4110   -0.4150 C   0  0  0  0  0  0  0  0  0  0  0  0
   27.0630  -10.4410    0.1770 C   0  0  0  0  0  0  0  0  0  0  0  0
   28.4720  -10.5700    0.5530 C   0  0  0  0  0  0  0  0  0  0  0  0
   28.9850  -11.8570    0.8050 C   0  0  0  0  0  0  0  0  0  0  0  0
   30.2900  -12.0080    1.1560 C   0  0  0  0  0  0  0  0  0  0  0  0
   31.1060  -10.9500    1.2670 N   0  0  0  0  0  0  0  0  0  0  0  0
   30.6150   -9.7100    1.0270 C   0  0  0  0  0  0  0  0  0  0  0  0
   29.3370   -9.4880    0.6770 C   0  0  0  0  0  0  0  0  0  0  0  0
  1  6  1  6  0  0  0
  1  2  1  0  0  0  0
  2  4  1  0  0  0  0
  2  3  1  0  0  0  0
  5  2  1  0  0  0  0
  7  6  1  0  0  0  0
  7 16  2  0  0  0  0
  8  7  1  0  0  0  0
  9  8  2  0  0  0  0
 10  9  1  0  0  0  0
 11 10  2  0  0  0  0
 11 12  1  0  0  0  0
 12 13  2  0  0  0  0
 13  8  1  0  0  0  0
 13 14  1  0  0  0  0
 14 15  1  0  0  0  0
 14 16  1  0  0  0  0
 17  1  1  0  0  0  0
 17 18  1  0  0  0  0
 19 20  2  0  0  0  0
 19 18  1  0  0  0  0
 21 20  1  0  0  0  0
 21 25  1  0  0  0  0
 22 21  2  0  0  0  0
 23 24  2  0  0  0  0
 23 22  1  0  0  0  0
 24 19  1  0  0  0  0
 25 26  2  0  0  0  0
 26 27  1  0  0  0  0
 27 32  2  0  0  0  0
 27 28  1  0  0  0  0
 28 29  2  0  0  0  0
 29 30  1  0  0  0  0
 31 30  2  0  0  0  0
 32 31  1  0  0  0  0
M  END
>  <minimizedAffinity>
-8.30675507

$$$$

 OpenBabel12271915483D

 32 35  0  0  1  0  0  0  0  0999 V2000
   22.6510  -14.7830   -1.9910 C   0  0  1  0  0  0  0  0  0  0  0  0
   23.3640  -15.8990   -2.6290 N   0  0  0  0  0  0  0  0  0  0  0  0
   23.9210  -15.5260   -3.3870 H   0  0  0  0  0  0  0  0  0  0  0  0
   22.7290  -16.6200   -3.0170 H   0  0  0  0  0  0  0  0  0  0  0  0
   24.0210  -16.3110   -1.9310 H   0  0  0  0  0  0  0  0  0  0  0  0
   21.8250  -15.2090   -0.7900 C   0  0  0  0  0  0  0  0  0  0  0  0
   20.4600  -14.6560   -0.8350 C   0  0  0  0  0  0  0  0  0  0  0  0
   19.4710  -15.0630   -1.7240 C   0  0  0  0  0  0  0  0  0  0  0  0
   19.4360  -16.0010   -2.7470 C   0  0  0  0  0  0  0  0  0  0  0  0
   18.2490  -16.1510   -3.4710 C   0  0  0  0  0  0  0  0  0  0  0  0
   17.1280  -15.3860   -3.1820 C   0  0  0  0  0  0  0  0  0  0  0  0
   17.1810  -14.4390   -2.1350 C   0  0  0  0  0  0  0  0  0  0  0  0
   18.3680  -14.3050   -1.4220 C   0  0  0  0  0  0  0  0  0  0  0  0
   18.6600  -13.4420   -0.3590 N   0  0  0  0  0  0  0  0  0  0  0  0
   18.0590  -12.7620    0.0640 H   0  0  0  0  0  0  0  0  0  0  0  0
   19.9640  -13.6850   -0.0060 C   0  0  0  0  0  0  0  0  0  0  0  0
   23.7150  -13.8400   -1.3950 C   0  0  0  0  0  0  0  0  0  0  0  0
   23.5770  -12.4750   -1.9870 O   0  0  0  0  0  0  0  0  0  0  0  0
   23.9770  -11.5480   -2.8050 C   0  0  0  0  0  0  0  0  0  0  0  0
   22.8510  -11.0410   -3.4410 C   0  0  0  0  0  0  0  0  0  0  0  0
   22.9140  -10.0020   -4.3760 C   0  0  0  0  0  0  0  0  0  0  0  0
   24.1470   -9.5030   -4.6370 C   0  0  0  0  0  0  0  0  0  0  0  0
   25.2850   -9.9740   -4.0390 N   0  0  0  0  0  0  0  0  0  0  0  0
   25.1740  -11.0220   -3.1200 C   0  0  0  0  0  0  0  0  0  0  0  0
   21.6980   -9.4950   -5.0230 C   0  0  0  0  0  0  0  0  0  0  0  0
   20.4920   -9.3930   -4.4580 C   0  0  0  0  0  0  0  0  0  0  0  0
   19.3100   -8.8800   -5.1530 C   0  0  0  0  0  0  0  0  0  0  0  0
   18.1470   -8.6220   -4.4010 C   0  0  0  0  0  0  0  0  0  0  0  0
   17.0340   -8.1450   -5.0180 C   0  0  0  0  0  0  0  0  0  0  0  0
   17.0180   -7.9130   -6.3380 N   0  0  0  0  0  0  0  0  0  0  0  0
   18.1340   -8.1620   -7.0650 C   0  0  0  0  0  0  0  0  0  0  0  0
   19.2680   -8.6330   -6.5210 C   0  0  0  0  0  0  0  0  0  0  0  0
  1 17  1  1  0  0  0
  1  6  1  0  0  0  0
  2  1  1  0  0  0  0
  2  5  1  0  0  0  0
  3  2  1  0  0  0  0
  4  2  1  0  0  0  0
  7  6  1  0  0  0  0
  7 16  2  0  0  0  0
  8 13  1  0  0  0  0
  8  7  1  0  0  0  0
  9  8  2  0  0  0  0
 10 11  2  0  0  0  0
 10  9  1  0  0  0  0
 11 12  1  0  0  0  0
 12 13  2  0  0  0  0
 13 14  1  0  0  0  0
 14 16  1  0  0  0  0
 14 15  1  0  0  0  0
 18 17  1  0  0  0  0
 19 18  1  0  0  0  0
 20 19  2  0  0  0  0
 21 20  1  0  0  0  0
 22 21  2  0  0  0  0
 22 23  1  0  0  0  0
 23 24  2  0  0  0  0
 24 19  1  0  0  0  0
 25 26  2  0  0  0  0
 25 21  1  0  0  0  0
 27 26  1  0  0  0  0
 27 28  2  0  0  0  0
 29 28  1  0  0  0  0
 30 29  2  0  0  0  0
 31 32  2  0  0  0  0
 31 30  1  0  0  0  0
 32 27  1  0  0  0  0
M  END
>  <minimizedAffinity>
-8.28182697

$$$$

 OpenBabel12271915483D

 32 35  0  0  1  0  0  0  0  0999 V2000
   23.4260   -8.8100   -2.5560 C   0  0  1  0  0  0  0  0  0  0  0  0
   24.2920   -7.6280   -2.6730 N   0  0  0  0  0  0  0  0  0  0  0  0
   25.2250   -7.8890   -2.3830 H   0  0  0  0  0  0  0  0  0  0  0  0
   23.9790   -6.8330   -2.0860 H   0  0  0  0  0  0  0  0  0  0  0  0
   24.3420   -7.3560   -3.6800 H   0  0  0  0  0  0  0  0  0  0  0  0
   22.0050   -8.5610   -3.0280 C   0  0  0  0  0  0  0  0  0  0  0  0
   21.0190   -8.7920   -1.9580 C   0  0  0  0  0  0  0  0  0  0  0  0
   19.9090   -9.6220   -2.0710 C   0  0  0  0  0  0  0  0  0  0  0  0
   19.4070  -10.4080   -3.1000 C   0  0  0  0  0  0  0  0  0  0  0  0
   18.2290  -11.1260   -2.8740 C   0  0  0  0  0  0  0  0  0  0  0  0
   17.5690  -11.0610   -1.6550 C   0  0  0  0  0  0  0  0  0  0  0  0
   18.0960  -10.2580   -0.6190 C   0  0  0  0  0  0  0  0  0  0  0  0
   19.2710   -9.5530   -0.8580 C   0  0  0  0  0  0  0  0  0  0  0  0
   19.9730   -8.7000    0.0020 N   0  0  0  0  0  0  0  0  0  0  0  0
   19.7380   -8.4440    0.9400 H   0  0  0  0  0  0  0  0  0  0  0  0
   21.0610   -8.2460   -0.7010 C   0  0  0  0  0  0  0  0  0  0  0  0
   23.9630   -9.8700   -3.5370 C   0  0  0  0  0  0  0  0  0  0  0  0
   23.9140  -11.2230   -2.9050 O   0  0  0  0  0  0  0  0  0  0  0  0
   23.4890  -12.0270   -1.9770 C   0  0  0  0  0  0  0  0  0  0  0  0
   22.2620  -12.5290   -2.3920 C   0  0  0  0  0  0  0  0  0  0  0  0
   21.5280  -13.4520   -1.6380 C   0  0  0  0  0  0  0  0  0  0  0  0
   22.0800  -13.8400   -0.4620 C   0  0  0  0  0  0  0  0  0  0  0  0
   23.2840  -13.3690   -0.0100 N   0  0  0  0  0  0  0  0  0  0  0  0
   23.9750  -12.4380   -0.7930 C   0  0  0  0  0  0  0  0  0  0  0  0
   20.2360  -13.9580   -2.1150 C   0  0  0  0  0  0  0  0  0  0  0  0
   20.0160  -15.1580   -2.6580 C   0  0  0  0  0  0  0  0  0  0  0  0
   18.7040  -15.6130   -3.1210 C   0  0  0  0  0  0  0  0  0  0  0  0
   17.5650  -14.8780   -2.7410 C   0  0  0  0  0  0  0  0  0  0  0  0
   16.3320  -15.2750   -3.1560 C   0  0  0  0  0  0  0  0  0  0  0  0
   16.1770  -16.3610   -3.9260 N   0  0  0  0  0  0  0  0  0  0  0  0
   17.2710  -17.0720   -4.2930 C   0  0  0  0  0  0  0  0  0  0  0  0
   18.5170  -16.7370   -3.9190 C   0  0  0  0  0  0  0  0  0  0  0  0
  1 17  1  6  0  0  0
  2  1  1  0  0  0  0
  2  3  1  0  0  0  0
  2  4  1  0  0  0  0
  5  2  1  0  0  0  0
  6  1  1  0  0  0  0
  6  7  1  0  0  0  0
  7 16  2  0  0  0  0
  8  7  1  0  0  0  0
  8 13  2  0  0  0  0
  9 10  2  0  0  0  0
  9  8  1  0  0  0  0
 10 11  1  0  0  0  0
 11 12  2  0  0  0  0
 13 12  1  0  0  0  0
 13 14  1  0  0  0  0
 14 15  1  0  0  0  0
 16 14  1  0  0  0  0
 17 18  1  0  0  0  0
 18 19  1  0  0  0  0
 19 24  1  0  0  0  0
 20 19  2  0  0  0  0
 20 21  1  0  0  0  0
 21 22  2  0  0  0  0
 22 23  1  0  0  0  0
 24 23  2  0  0  0  0
 25 21  1  0  0  0  0
 26 25  2  0  0  0  0
 27 28  1  0  0  0  0
 27 26  1  0  0  0  0
 29 28  2  0  0  0  0
 30 29  1  0  0  0  0
 31 30  2  0  0  0  0
 31 32  1  0  0  0  0
 32 27  2  0  0  0  0
M  END
>  <minimizedAffinity>
-8.07127285

$$$$

 OpenBabel12271915483D

 32 35  0  0  1  0  0  0  0  0999 V2000
   24.9430  -13.1460   -0.8080 C   0  0  1  0  0  0  0  0  0  0  0  0
   25.8320  -13.9800    0.0140 N   0  0  0  0  0  0  0  0  0  0  0  0
   26.7660  -13.9210   -0.3700 H   0  0  0  0  0  0  0  0  0  0  0  0
   25.5510  -14.9770    0.0360 H   0  0  0  0  0  0  0  0  0  0  0  0
   25.8640  -13.5760    0.9760 H   0  0  0  0  0  0  0  0  0  0  0  0
   23.5170  -13.1000   -0.2900 C   0  0  0  0  0  0  0  0  0  0  0  0
   22.6040  -13.9150   -1.1110 C   0  0  0  0  0  0  0  0  0  0  0  0
   21.2200  -13.9310   -0.9770 C   0  0  0  0  0  0  0  0  0  0  0  0
   20.3370  -13.2760   -0.1290 C   0  0  0  0  0  0  0  0  0  0  0  0
   18.9700  -13.5390   -0.2610 C   0  0  0  0  0  0  0  0  0  0  0  0
   18.4980  -14.4310   -1.2120 C   0  0  0  0  0  0  0  0  0  0  0  0
   19.4110  -15.0850   -2.0690 C   0  0  0  0  0  0  0  0  0  0  0  0
   20.7670  -14.8100   -1.9270 C   0  0  0  0  0  0  0  0  0  0  0  0
   21.8480  -15.3320   -2.6470 N   0  0  0  0  0  0  0  0  0  0  0  0
   21.8260  -16.0070   -3.3870 H   0  0  0  0  0  0  0  0  0  0  0  0
   22.9790  -14.7540   -2.1270 C   0  0  0  0  0  0  0  0  0  0  0  0
   25.4320  -11.6900   -0.6800 C   0  0  0  0  0  0  0  0  0  0  0  0
   25.4900  -11.0500   -2.0280 O   0  0  0  0  0  0  0  0  0  0  0  0
   24.9050  -10.4860   -3.0420 C   0  0  0  0  0  0  0  0  0  0  0  0
   23.5510  -10.3950   -2.7450 C   0  0  0  0  0  0  0  0  0  0  0  0
   22.6230   -9.8120   -3.6140 C   0  0  0  0  0  0  0  0  0  0  0  0
   23.1140   -9.3290   -4.7820 C   0  0  0  0  0  0  0  0  0  0  0  0
   24.4400   -9.4010   -5.1210 N   0  0  0  0  0  0  0  0  0  0  0  0
   25.3280  -10.0040   -4.2250 C   0  0  0  0  0  0  0  0  0  0  0  0
   21.2010   -9.7350   -3.2580 C   0  0  0  0  0  0  0  0  0  0  0  0
   20.6080  -10.3800   -2.2500 C   0  0  0  0  0  0  0  0  0  0  0  0
   19.1810  -10.2690   -1.9410 C   0  0  0  0  0  0  0  0  0  0  0  0
   18.8010   -9.6360   -0.7420 C   0  0  0  0  0  0  0  0  0  0  0  0
   17.4830   -9.5170   -0.4280 C   0  0  0  0  0  0  0  0  0  0  0  0
   16.5310   -9.9930   -1.2430 N   0  0  0  0  0  0  0  0  0  0  0  0
   16.8930  -10.6040   -2.3960 C   0  0  0  0  0  0  0  0  0  0  0  0
   18.1750  -10.7560   -2.7690 C   0  0  0  0  0  0  0  0  0  0  0  0
  1 17  1  1  0  0  0
  1  6  1  0  0  0  0
  1  2  1  0  0  0  0
  2  4  1  0  0  0  0
  2  5  1  0  0  0  0
  3  2  1  0  0  0  0
  7  8  1  0  0  0  0
  7  6  1  0  0  0  0
  8  9  2  0  0  0  0
 10  9  1  0  0  0  0
 11 10  2  0  0  0  0
 12 13  2  0  0  0  0
 12 11  1  0  0  0  0
 13  8  1  0  0  0  0
 14 16  1  0  0  0  0
 14 13  1  0  0  0  0
 15 14  1  0  0  0  0
 16  7  2  0  0  0  0
 18 17  1  0  0  0  0
 19 20  1  0  0  0  0
 19 18  1  0  0  0  0
 21 25  1  0  0  0  0
 21 20  2  0  0  0  0
 22 21  1  0  0  0  0
 23 22  2  0  0  0  0
 23 24  1  0  0  0  0
 24 19  2  0  0  0  0
 25 26  2  0  0  0  0
 26 27  1  0  0  0  0
 27 28  2  0  0  0  0
 28 29  1  0  0  0  0
 30 29  2  0  0  0  0
 31 30  1  0  0  0  0
 32 31  2  0  0  0  0
 32 27  1  0  0  0  0
M  END
>  <minimizedAffinity>
-8.03380585

$$$$
