
 OpenBabel12271915483D

 24 27  0  0  0  0  0  0  0  0999 V2000
   20.0960  -12.6140   -0.8320 N   0  0  0  0  0  0  0  0  0  0  0  0
   19.8480  -11.3350   -1.3960 C   0  0  0  0  0  0  0  0  0  0  0  0
   18.6340  -10.8070   -1.4500 N   0  0  0  0  0  0  0  0  0  0  0  0
   18.3060   -9.6470   -0.5920 C   0  0  0  0  0  0  0  0  0  0  0  0
   17.7370   -8.5090   -1.4190 C   0  0  0  0  0  0  0  0  0  0  0  0
   16.4610   -8.9260   -2.1750 N   0  0  0  0  0  0  0  0  0  0  0  0
   15.6660   -8.6600   -1.6220 H   0  0  0  0  0  0  0  0  0  0  0  0
   16.4730   -8.4440   -3.0660 H   0  0  0  0  0  0  0  0  0  0  0  0
   16.3740  -10.4440   -2.4670 C   0  0  0  0  0  0  0  0  0  0  0  0
   17.7870  -11.0340   -2.6300 C   0  0  0  0  0  0  0  0  0  0  0  0
   20.9660  -10.8100   -1.8040 N   0  0  0  0  0  0  0  0  0  0  0  0
   21.9790  -11.6910   -1.5380 C   0  0  0  0  0  0  0  0  0  0  0  0
   23.3680  -11.5930   -1.7830 C   0  0  0  0  0  0  0  0  0  0  0  0
   24.1890  -12.6660   -1.4130 C   0  0  0  0  0  0  0  0  0  0  0  0
   23.6390  -13.7880   -0.8210 C   0  0  0  0  0  0  0  0  0  0  0  0
   22.2480  -13.8930   -0.5710 C   0  0  0  0  0  0  0  0  0  0  0  0
   21.4570  -12.8280   -0.9380 C   0  0  0  0  0  0  0  0  0  0  0  0
   19.1150  -13.6010   -0.3340 C   0  0  0  0  0  0  0  0  0  0  0  0
   18.5720  -14.4860   -1.4580 C   0  0  0  0  0  0  0  0  0  0  0  0
   19.3930  -15.3550   -2.2000 C   0  0  0  0  0  0  0  0  0  0  0  0
   18.8860  -16.1290   -3.2400 C   0  0  0  0  0  0  0  0  0  0  0  0
   17.5340  -16.0470   -3.5810 C   0  0  0  0  0  0  0  0  0  0  0  0
   16.7040  -15.1900   -2.8530 C   0  0  0  0  0  0  0  0  0  0  0  0
   17.2320  -14.4170   -1.8060 C   0  0  0  0  0  0  0  0  0  0  0  0
  1 18  1  0  0  0  0
  2  1  1  0  0  0  0
  3  2  1  0  0  0  0
  3  4  1  0  0  0  0
  5  4  1  0  0  0  0
  6  7  1  0  0  0  0
  6  5  1  0  0  0  0
  8  6  1  0  0  0  0
  9  6  1  0  0  0  0
 10  9  1  0  0  0  0
 10  3  1  0  0  0  0
 11 12  2  0  0  0  0
 11  2  2  0  0  0  0
 12 17  1  0  0  0  0
 13 12  1  0  0  0  0
 13 14  1  0  0  0  0
 14 15  2  0  0  0  0
 15 16  1  0  0  0  0
 17  1  1  0  0  0  0
 17 16  2  0  0  0  0
 19 18  1  0  0  0  0
 20 19  2  0  0  0  0
 21 20  1  0  0  0  0
 22 21  2  0  0  0  0
 22 23  1  0  0  0  0
 23 24  2  0  0  0  0
 24 19  1  0  0  0  0
M  END
>  <minimizedAffinity>
-7.84451723

$$$$

 OpenBabel12271915483D

 24 27  0  0  0  0  0  0  0  0999 V2000
   21.5670  -12.2910   -0.7380 N   0  0  0  0  0  0  0  0  0  0  0  0
   21.2190  -11.1160   -1.4570 C   0  0  0  0  0  0  0  0  0  0  0  0
   19.9620  -10.7300   -1.6190 N   0  0  0  0  0  0  0  0  0  0  0  0
   19.4740   -9.5230   -0.9140 C   0  0  0  0  0  0  0  0  0  0  0  0
   18.8360   -8.5510   -1.8890 C   0  0  0  0  0  0  0  0  0  0  0  0
   17.6490   -9.1840   -2.6400 N   0  0  0  0  0  0  0  0  0  0  0  0
   16.8040   -8.9450   -2.1530 H   0  0  0  0  0  0  0  0  0  0  0  0
   17.6570   -8.8060   -3.5800 H   0  0  0  0  0  0  0  0  0  0  0  0
   17.7310  -10.7260   -2.7570 C   0  0  0  0  0  0  0  0  0  0  0  0
   19.2030  -11.1760   -2.7960 C   0  0  0  0  0  0  0  0  0  0  0  0
   22.2970  -10.5240   -1.8790 N   0  0  0  0  0  0  0  0  0  0  0  0
   23.3800  -11.2560   -1.4740 C   0  0  0  0  0  0  0  0  0  0  0  0
   24.7620  -11.0390   -1.6750 C   0  0  0  0  0  0  0  0  0  0  0  0
   25.6680  -11.9710   -1.1510 C   0  0  0  0  0  0  0  0  0  0  0  0
   25.2050  -13.0710   -0.4550 C   0  0  0  0  0  0  0  0  0  0  0  0
   23.8220  -13.2960   -0.2480 C   0  0  0  0  0  0  0  0  0  0  0  0
   22.9470  -12.3690   -0.7660 C   0  0  0  0  0  0  0  0  0  0  0  0
   20.6670  -13.3150   -0.1680 C   0  0  0  0  0  0  0  0  0  0  0  0
   20.0330  -14.1890   -1.2520 C   0  0  0  0  0  0  0  0  0  0  0  0
   18.6430  -14.3780   -1.3540 C   0  0  0  0  0  0  0  0  0  0  0  0
   18.0870  -15.2030   -2.3280 C   0  0  0  0  0  0  0  0  0  0  0  0
   18.9130  -15.8810   -3.2280 C   0  0  0  0  0  0  0  0  0  0  0  0
   20.2960  -15.7040   -3.1400 C   0  0  0  0  0  0  0  0  0  0  0  0
   20.8400  -14.8670   -2.1530 C   0  0  0  0  0  0  0  0  0  0  0  0
  1 18  1  0  0  0  0
  2  1  1  0  0  0  0
  3  2  1  0  0  0  0
  3  4  1  0  0  0  0
  5  4  1  0  0  0  0
  6  7  1  0  0  0  0
  6  5  1  0  0  0  0
  8  6  1  0  0  0  0
  9  6  1  0  0  0  0
 10  9  1  0  0  0  0
 10  3  1  0  0  0  0
 11 12  2  0  0  0  0
 11  2  2  0  0  0  0
 12 17  1  0  0  0  0
 13 12  1  0  0  0  0
 13 14  1  0  0  0  0
 14 15  2  0  0  0  0
 15 16  1  0  0  0  0
 17  1  1  0  0  0  0
 17 16  2  0  0  0  0
 19 18  1  0  0  0  0
 20 19  1  0  0  0  0
 21 20  2  0  0  0  0
 22 23  2  0  0  0  0
 22 21  1  0  0  0  0
 23 24  1  0  0  0  0
 24 19  2  0  0  0  0
M  END
>  <minimizedAffinity>
-7.56457663

$$$$

 OpenBabel12271915483D

 24 27  0  0  0  0  0  0  0  0999 V2000
   20.6400  -11.9750   -0.8680 N   0  0  0  0  0  0  0  0  0  0  0  0
   21.8300  -11.2650   -1.1820 C   0  0  0  0  0  0  0  0  0  0  0  0
   23.0240  -11.8390   -1.1600 N   0  0  0  0  0  0  0  0  0  0  0  0
   23.7410  -12.0780   -2.4330 C   0  0  0  0  0  0  0  0  0  0  0  0
   25.1390  -11.4910   -2.3820 C   0  0  0  0  0  0  0  0  0  0  0  0
   25.9760  -12.0930   -1.2370 N   0  0  0  0  0  0  0  0  0  0  0  0
   26.5200  -12.8510   -1.6090 H   0  0  0  0  0  0  0  0  0  0  0  0
   26.5660  -11.3520   -0.8790 H   0  0  0  0  0  0  0  0  0  0  0  0
   25.1290  -12.6260   -0.0560 C   0  0  0  0  0  0  0  0  0  0  0  0
   23.8270  -11.8150    0.0720 C   0  0  0  0  0  0  0  0  0  0  0  0
   21.5400  -10.0350   -1.4910 N   0  0  0  0  0  0  0  0  0  0  0  0
   20.1830   -9.8760   -1.3990 C   0  0  0  0  0  0  0  0  0  0  0  0
   19.3760   -8.7400   -1.6330 C   0  0  0  0  0  0  0  0  0  0  0  0
   17.9920   -8.8550   -1.4490 C   0  0  0  0  0  0  0  0  0  0  0  0
   17.4430  -10.0590   -1.0510 C   0  0  0  0  0  0  0  0  0  0  0  0
   18.2460  -11.2030   -0.8160 C   0  0  0  0  0  0  0  0  0  0  0  0
   19.6020  -11.0730   -1.0050 C   0  0  0  0  0  0  0  0  0  0  0  0
   20.5050  -13.3610   -0.3740 C   0  0  0  0  0  0  0  0  0  0  0  0
   19.9600  -14.3030   -1.4500 C   0  0  0  0  0  0  0  0  0  0  0  0
   20.7810  -14.8820   -2.4350 C   0  0  0  0  0  0  0  0  0  0  0  0
   20.2600  -15.7110   -3.4240 C   0  0  0  0  0  0  0  0  0  0  0  0
   18.8900  -15.9780   -3.4680 C   0  0  0  0  0  0  0  0  0  0  0  0
   18.0610  -15.4110   -2.4960 C   0  0  0  0  0  0  0  0  0  0  0  0
   18.6020  -14.5780   -1.5040 C   0  0  0  0  0  0  0  0  0  0  0  0
  1 18  1  0  0  0  0
  2  3  1  0  0  0  0
  2  1  1  0  0  0  0
  3 10  1  0  0  0  0
  4  5  1  0  0  0  0
  4  3  1  0  0  0  0
  5  6  1  0  0  0  0
  6  8  1  0  0  0  0
  6  9  1  0  0  0  0
  7  6  1  0  0  0  0
  9 10  1  0  0  0  0
 11 12  2  0  0  0  0
 11  2  2  0  0  0  0
 12 17  1  0  0  0  0
 13 14  1  0  0  0  0
 13 12  1  0  0  0  0
 14 15  2  0  0  0  0
 15 16  1  0  0  0  0
 17  1  1  0  0  0  0
 17 16  2  0  0  0  0
 19 18  1  0  0  0  0
 20 19  2  0  0  0  0
 21 20  1  0  0  0  0
 22 21  2  0  0  0  0
 22 23  1  0  0  0  0
 23 24  2  0  0  0  0
 24 19  1  0  0  0  0
M  END
>  <minimizedAffinity>
-7.46731615

$$$$

 OpenBabel12271915483D

 24 27  0  0  0  0  0  0  0  0999 V2000
   20.9170  -12.3260   -1.9120 N   0  0  0  0  0  0  0  0  0  0  0  0
   20.9530  -11.5270   -3.0860 C   0  0  0  0  0  0  0  0  0  0  0  0
   21.6330  -10.3920   -3.1490 N   0  0  0  0  0  0  0  0  0  0  0  0
   22.8540  -10.3200   -3.9830 C   0  0  0  0  0  0  0  0  0  0  0  0
   22.7780   -9.1510   -4.9490 C   0  0  0  0  0  0  0  0  0  0  0  0
   22.6150   -7.8070   -4.2160 N   0  0  0  0  0  0  0  0  0  0  0  0
   23.5250   -7.3980   -4.1010 H   0  0  0  0  0  0  0  0  0  0  0  0
   22.0160   -7.2260   -4.7900 H   0  0  0  0  0  0  0  0  0  0  0  0
   21.9490   -7.9290   -2.8240 C   0  0  0  0  0  0  0  0  0  0  0  0
   20.9770   -9.1220   -2.8040 C   0  0  0  0  0  0  0  0  0  0  0  0
   20.2550  -12.0930   -4.0260 N   0  0  0  0  0  0  0  0  0  0  0  0
   19.7370  -13.2610   -3.5350 C   0  0  0  0  0  0  0  0  0  0  0  0
   18.9180  -14.2320   -4.1540 C   0  0  0  0  0  0  0  0  0  0  0  0
   18.5160  -15.3440   -3.4020 C   0  0  0  0  0  0  0  0  0  0  0  0
   18.9210  -15.4750   -2.0870 C   0  0  0  0  0  0  0  0  0  0  0  0
   19.7430  -14.5060   -1.4600 C   0  0  0  0  0  0  0  0  0  0  0  0
   20.1310  -13.4230   -2.2140 C   0  0  0  0  0  0  0  0  0  0  0  0
   21.4850  -12.0260   -0.5820 C   0  0  0  0  0  0  0  0  0  0  0  0
   22.9730  -12.3700   -0.5030 C   0  0  0  0  0  0  0  0  0  0  0  0
   23.4690  -13.6540   -0.7960 C   0  0  0  0  0  0  0  0  0  0  0  0
   24.8240  -13.9560   -0.6870 C   0  0  0  0  0  0  0  0  0  0  0  0
   25.7290  -12.9790   -0.2660 C   0  0  0  0  0  0  0  0  0  0  0  0
   25.2530  -11.6990    0.0280 C   0  0  0  0  0  0  0  0  0  0  0  0
   23.8840  -11.4100   -0.0880 C   0  0  0  0  0  0  0  0  0  0  0  0
  1 18  1  0  0  0  0
  2  1  1  0  0  0  0
  3  2  1  0  0  0  0
  3 10  1  0  0  0  0
  4  3  1  0  0  0  0
  5  6  1  0  0  0  0
  5  4  1  0  0  0  0
  6  7  1  0  0  0  0
  6  9  1  0  0  0  0
  8  6  1  0  0  0  0
  9 10  1  0  0  0  0
 11 12  2  0  0  0  0
 11  2  2  0  0  0  0
 12 17  1  0  0  0  0
 13 12  1  0  0  0  0
 13 14  1  0  0  0  0
 14 15  2  0  0  0  0
 15 16  1  0  0  0  0
 17  1  1  0  0  0  0
 17 16  2  0  0  0  0
 18 19  1  0  0  0  0
 19 24  2  0  0  0  0
 20 21  2  0  0  0  0
 20 19  1  0  0  0  0
 21 22  1  0  0  0  0
 22 23  2  0  0  0  0
 24 23  1  0  0  0  0
M  END
>  <minimizedAffinity>
-7.27933407

$$$$

 OpenBabel12271915483D

 24 27  0  0  0  0  0  0  0  0999 V2000
   20.8110  -12.4690   -1.9200 N   0  0  0  0  0  0  0  0  0  0  0  0
   22.0540  -13.1520   -1.8450 C   0  0  0  0  0  0  0  0  0  0  0  0
   23.1870  -12.5320   -1.5510 N   0  0  0  0  0  0  0  0  0  0  0  0
   23.8390  -12.7840   -0.2460 C   0  0  0  0  0  0  0  0  0  0  0  0
   25.2890  -13.1890   -0.4380 C   0  0  0  0  0  0  0  0  0  0  0  0
   26.0970  -12.1080   -1.1790 N   0  0  0  0  0  0  0  0  0  0  0  0
   26.5540  -11.5310   -0.4960 H   0  0  0  0  0  0  0  0  0  0  0  0
   26.7670  -12.5890   -1.7690 H   0  0  0  0  0  0  0  0  0  0  0  0
   25.2380  -11.2020   -2.0950 C   0  0  0  0  0  0  0  0  0  0  0  0
   24.0250  -11.9850   -2.6290 C   0  0  0  0  0  0  0  0  0  0  0  0
   21.8750  -14.4180   -2.0830 N   0  0  0  0  0  0  0  0  0  0  0  0
   20.5440  -14.6290   -2.3220 C   0  0  0  0  0  0  0  0  0  0  0  0
   19.8440  -15.8180   -2.6260 C   0  0  0  0  0  0  0  0  0  0  0  0
   18.4610  -15.7430   -2.8390 C   0  0  0  0  0  0  0  0  0  0  0  0
   17.8100  -14.5270   -2.7480 C   0  0  0  0  0  0  0  0  0  0  0  0
   18.5050  -13.3310   -2.4420 C   0  0  0  0  0  0  0  0  0  0  0  0
   19.8620  -13.4230   -2.2330 C   0  0  0  0  0  0  0  0  0  0  0  0
   20.5570  -11.0170   -1.8150 C   0  0  0  0  0  0  0  0  0  0  0  0
   20.3080  -10.3780   -3.1820 C   0  0  0  0  0  0  0  0  0  0  0  0
   21.2340  -10.4650   -4.2380 C   0  0  0  0  0  0  0  0  0  0  0  0
   21.0030   -9.8490   -5.4650 C   0  0  0  0  0  0  0  0  0  0  0  0
   19.8350   -9.1110   -5.6710 C   0  0  0  0  0  0  0  0  0  0  0  0
   18.9040   -9.0160   -4.6330 C   0  0  0  0  0  0  0  0  0  0  0  0
   19.1520   -9.6440   -3.4030 C   0  0  0  0  0  0  0  0  0  0  0  0
  1  2  1  0  0  0  0
  1 18  1  0  0  0  0
  2  3  1  0  0  0  0
  3  4  1  0  0  0  0
  5  4  1  0  0  0  0
  6  7  1  0  0  0  0
  6  5  1  0  0  0  0
  8  6  1  0  0  0  0
  9  6  1  0  0  0  0
 10  9  1  0  0  0  0
 10  3  1  0  0  0  0
 11  2  2  0  0  0  0
 12 17  1  0  0  0  0
 12 11  2  0  0  0  0
 13 12  1  0  0  0  0
 14 15  2  0  0  0  0
 14 13  1  0  0  0  0
 15 16  1  0  0  0  0
 16 17  2  0  0  0  0
 17  1  1  0  0  0  0
 19 18  1  0  0  0  0
 20 19  2  0  0  0  0
 21 20  1  0  0  0  0
 22 21  2  0  0  0  0
 22 23  1  0  0  0  0
 23 24  2  0  0  0  0
 24 19  1  0  0  0  0
M  END
>  <minimizedAffinity>
-7.21019602

$$$$

 OpenBabel12271915483D

 24 27  0  0  0  0  0  0  0  0999 V2000
   23.1510  -11.6560   -2.1560 N   0  0  0  0  0  0  0  0  0  0  0  0
   23.0070  -10.3010   -2.5570 C   0  0  0  0  0  0  0  0  0  0  0  0
   21.9960   -9.8870   -3.3050 N   0  0  0  0  0  0  0  0  0  0  0  0
   20.9540   -9.0220   -2.7060 C   0  0  0  0  0  0  0  0  0  0  0  0
   20.7600   -7.7630   -3.5320 C   0  0  0  0  0  0  0  0  0  0  0  0
   20.3480   -8.0810   -4.9810 N   0  0  0  0  0  0  0  0  0  0  0  0
   19.3460   -8.0390   -5.0420 H   0  0  0  0  0  0  0  0  0  0  0  0
   20.7860   -7.3860   -5.5740 H   0  0  0  0  0  0  0  0  0  0  0  0
   20.8130   -9.4730   -5.4740 C   0  0  0  0  0  0  0  0  0  0  0  0
   22.1230   -9.8740   -4.7690 C   0  0  0  0  0  0  0  0  0  0  0  0
   23.9820   -9.5920   -2.0670 N   0  0  0  0  0  0  0  0  0  0  0  0
   24.7940  -10.4190   -1.3400 C   0  0  0  0  0  0  0  0  0  0  0  0
   25.9740  -10.1380   -0.6140 C   0  0  0  0  0  0  0  0  0  0  0  0
   26.6230  -11.1940    0.0400 C   0  0  0  0  0  0  0  0  0  0  0  0
   26.1070  -12.4750   -0.0310 C   0  0  0  0  0  0  0  0  0  0  0  0
   24.9240  -12.7630   -0.7550 C   0  0  0  0  0  0  0  0  0  0  0  0
   24.2980  -11.7140   -1.3880 C   0  0  0  0  0  0  0  0  0  0  0  0
   22.3340  -12.8200   -2.5560 C   0  0  0  0  0  0  0  0  0  0  0  0
   21.2800  -13.1700   -1.5030 C   0  0  0  0  0  0  0  0  0  0  0  0
   21.5370  -14.0590   -0.4430 C   0  0  0  0  0  0  0  0  0  0  0  0
   20.5550  -14.3900    0.4870 C   0  0  0  0  0  0  0  0  0  0  0  0
   19.2730  -13.8480    0.3770 C   0  0  0  0  0  0  0  0  0  0  0  0
   19.0010  -12.9620   -0.6700 C   0  0  0  0  0  0  0  0  0  0  0  0
   20.0030  -12.6380   -1.5980 C   0  0  0  0  0  0  0  0  0  0  0  0
  1 17  1  0  0  0  0
  2  1  1  0  0  0  0
  2 11  2  0  0  0  0
  3  4  1  0  0  0  0
  3  2  1  0  0  0  0
  5  4  1  0  0  0  0
  6  5  1  0  0  0  0
  7  6  1  0  0  0  0
  8  6  1  0  0  0  0
  9  6  1  0  0  0  0
  9 10  1  0  0  0  0
 10  3  1  0  0  0  0
 11 12  2  0  0  0  0
 12 13  1  0  0  0  0
 13 14  1  0  0  0  0
 15 14  2  0  0  0  0
 16 15  1  0  0  0  0
 17 12  1  0  0  0  0
 17 16  2  0  0  0  0
 18  1  1  0  0  0  0
 18 19  1  0  0  0  0
 19 20  1  0  0  0  0
 20 21  2  0  0  0  0
 22 21  1  0  0  0  0
 23 22  2  0  0  0  0
 24 19  2  0  0  0  0
 24 23  1  0  0  0  0
M  END
>  <minimizedAffinity>
-7.11151266

$$$$

 OpenBabel12271915483D

 24 27  0  0  0  0  0  0  0  0999 V2000
   22.0030  -12.1600   -1.2270 N   0  0  0  0  0  0  0  0  0  0  0  0
   21.5650  -13.4950   -1.4400 C   0  0  0  0  0  0  0  0  0  0  0  0
   20.3360  -13.7820   -1.8420 N   0  0  0  0  0  0  0  0  0  0  0  0
   20.1210  -14.3030   -3.2110 C   0  0  0  0  0  0  0  0  0  0  0  0
   19.3250  -15.5950   -3.1760 C   0  0  0  0  0  0  0  0  0  0  0  0
   17.9490  -15.4060   -2.5100 N   0  0  0  0  0  0  0  0  0  0  0  0
   17.2700  -15.2380   -3.2310 H   0  0  0  0  0  0  0  0  0  0  0  0
   17.7460  -16.2580   -2.0000 H   0  0  0  0  0  0  0  0  0  0  0  0
   17.8970  -14.2350   -1.4990 C   0  0  0  0  0  0  0  0  0  0  0  0
   19.2790  -14.0320   -0.8520 C   0  0  0  0  0  0  0  0  0  0  0  0
   22.5400  -14.3220   -1.1990 N   0  0  0  0  0  0  0  0  0  0  0  0
   23.6390  -13.5960   -0.8250 C   0  0  0  0  0  0  0  0  0  0  0  0
   24.9380  -14.0190   -0.4640 C   0  0  0  0  0  0  0  0  0  0  0  0
   25.8820  -13.0470   -0.1080 C   0  0  0  0  0  0  0  0  0  0  0  0
   25.5370  -11.7090   -0.1160 C   0  0  0  0  0  0  0  0  0  0  0  0
   24.2370  -11.2770   -0.4780 C   0  0  0  0  0  0  0  0  0  0  0  0
   23.3240  -12.2440   -0.8280 C   0  0  0  0  0  0  0  0  0  0  0  0
   21.2080  -10.9160   -1.2880 C   0  0  0  0  0  0  0  0  0  0  0  0
   21.0490  -10.4070   -2.7220 C   0  0  0  0  0  0  0  0  0  0  0  0
   22.1500  -10.1520   -3.5600 C   0  0  0  0  0  0  0  0  0  0  0  0
   21.9850   -9.6590   -4.8520 C   0  0  0  0  0  0  0  0  0  0  0  0
   20.7060   -9.3900   -5.3430 C   0  0  0  0  0  0  0  0  0  0  0  0
   19.6020   -9.6390   -4.5230 C   0  0  0  0  0  0  0  0  0  0  0  0
   19.7850  -10.1380   -3.2240 C   0  0  0  0  0  0  0  0  0  0  0  0
  1 17  1  0  0  0  0
  2  1  1  0  0  0  0
  2 11  2  0  0  0  0
  3  2  1  0  0  0  0
  3 10  1  0  0  0  0
  4  5  1  0  0  0  0
  4  3  1  0  0  0  0
  5  6  1  0  0  0  0
  6  8  1  0  0  0  0
  6  9  1  0  0  0  0
  7  6  1  0  0  0  0
  9 10  1  0  0  0  0
 11 12  2  0  0  0  0
 12 13  1  0  0  0  0
 13 14  1  0  0  0  0
 15 14  2  0  0  0  0
 16 15  1  0  0  0  0
 17 12  1  0  0  0  0
 17 16  2  0  0  0  0
 18  1  1  0  0  0  0
 19 18  1  0  0  0  0
 20 19  2  0  0  0  0
 21 20  1  0  0  0  0
 22 21  2  0  0  0  0
 22 23  1  0  0  0  0
 23 24  2  0  0  0  0
 24 19  1  0  0  0  0
M  END
>  <minimizedAffinity>
-7.05194283

$$$$

 OpenBabel12271915483D

 24 27  0  0  0  0  0  0  0  0999 V2000
   21.3100  -11.4840   -2.1310 N   0  0  0  0  0  0  0  0  0  0  0  0
   20.4840  -12.1330   -3.0880 C   0  0  0  0  0  0  0  0  0  0  0  0
   19.7510  -13.1950   -2.7870 N   0  0  0  0  0  0  0  0  0  0  0  0
   18.2770  -13.0700   -2.7290 C   0  0  0  0  0  0  0  0  0  0  0  0
   17.6130  -14.1170   -3.6040 C   0  0  0  0  0  0  0  0  0  0  0  0
   17.9930  -15.5480   -3.1800 N   0  0  0  0  0  0  0  0  0  0  0  0
   17.2790  -15.8950   -2.5640 H   0  0  0  0  0  0  0  0  0  0  0  0
   18.0560  -16.1020   -4.0260 H   0  0  0  0  0  0  0  0  0  0  0  0
   19.3590  -15.6460   -2.4580 C   0  0  0  0  0  0  0  0  0  0  0  0
   20.3070  -14.5440   -2.9650 C   0  0  0  0  0  0  0  0  0  0  0  0
   20.5650  -11.5150   -4.2300 N   0  0  0  0  0  0  0  0  0  0  0  0
   21.4240  -10.4590   -4.0900 C   0  0  0  0  0  0  0  0  0  0  0  0
   21.8440   -9.4890   -5.0270 C   0  0  0  0  0  0  0  0  0  0  0  0
   22.7560   -8.5100   -4.6120 C   0  0  0  0  0  0  0  0  0  0  0  0
   23.2230   -8.5050   -3.3110 C   0  0  0  0  0  0  0  0  0  0  0  0
   22.8050   -9.4740   -2.3650 C   0  0  0  0  0  0  0  0  0  0  0  0
   21.9070  -10.4250   -2.7890 C   0  0  0  0  0  0  0  0  0  0  0  0
   21.5970  -11.8950   -0.7420 C   0  0  0  0  0  0  0  0  0  0  0  0
   23.0000  -12.4900   -0.5990 C   0  0  0  0  0  0  0  0  0  0  0  0
   23.3260  -13.7770   -1.0640 C   0  0  0  0  0  0  0  0  0  0  0  0
   24.6000  -14.3130   -0.8960 C   0  0  0  0  0  0  0  0  0  0  0  0
   25.5900  -13.5780   -0.2400 C   0  0  0  0  0  0  0  0  0  0  0  0
   25.2820  -12.2980    0.2280 C   0  0  0  0  0  0  0  0  0  0  0  0
   23.9930  -11.7720    0.0490 C   0  0  0  0  0  0  0  0  0  0  0  0
  1 18  1  0  0  0  0
  2  3  1  0  0  0  0
  2  1  1  0  0  0  0
  3  4  1  0  0  0  0
  5  6  1  0  0  0  0
  5  4  1  0  0  0  0
  6  7  1  0  0  0  0
  6  9  1  0  0  0  0
  8  6  1  0  0  0  0
 10  3  1  0  0  0  0
 10  9  1  0  0  0  0
 11 12  2  0  0  0  0
 11  2  2  0  0  0  0
 12 17  1  0  0  0  0
 13 14  1  0  0  0  0
 13 12  1  0  0  0  0
 14 15  2  0  0  0  0
 15 16  1  0  0  0  0
 17 16  2  0  0  0  0
 17  1  1  0  0  0  0
 18 19  1  0  0  0  0
 19 24  2  0  0  0  0
 20 21  2  0  0  0  0
 20 19  1  0  0  0  0
 21 22  1  0  0  0  0
 22 23  2  0  0  0  0
 24 23  1  0  0  0  0
M  END
>  <minimizedAffinity>
-7.02744627

$$$$

 OpenBabel12271915483D

 24 27  0  0  0  0  0  0  0  0999 V2000
   20.6770  -12.2550   -2.8810 N   0  0  0  0  0  0  0  0  0  0  0  0
   21.8420  -12.6140   -2.1520 C   0  0  0  0  0  0  0  0  0  0  0  0
   22.7800  -11.7340   -1.8380 N   0  0  0  0  0  0  0  0  0  0  0  0
   22.9510  -11.3240   -0.4250 C   0  0  0  0  0  0  0  0  0  0  0  0
   24.3920  -11.5020    0.0160 C   0  0  0  0  0  0  0  0  0  0  0  0
   25.3660  -10.6760   -0.8460 N   0  0  0  0  0  0  0  0  0  0  0  0
   25.5370   -9.8030   -0.3810 H   0  0  0  0  0  0  0  0  0  0  0  0
   26.2150  -11.2210   -0.9400 H   0  0  0  0  0  0  0  0  0  0  0  0
   24.8430  -10.3810   -2.2730 C   0  0  0  0  0  0  0  0  0  0  0  0
   23.9180  -11.5180   -2.7440 C   0  0  0  0  0  0  0  0  0  0  0  0
   21.8030  -13.8810   -1.8570 N   0  0  0  0  0  0  0  0  0  0  0  0
   20.6450  -14.4060   -2.3620 C   0  0  0  0  0  0  0  0  0  0  0  0
   20.1370  -15.7240   -2.3100 C   0  0  0  0  0  0  0  0  0  0  0  0
   18.9110  -15.9920   -2.9320 C   0  0  0  0  0  0  0  0  0  0  0  0
   18.2240  -14.9800   -3.5770 C   0  0  0  0  0  0  0  0  0  0  0  0
   18.7260  -13.6560   -3.6320 C   0  0  0  0  0  0  0  0  0  0  0  0
   19.9300  -13.4100   -3.0130 C   0  0  0  0  0  0  0  0  0  0  0  0
   20.3490  -10.9530   -3.4990 C   0  0  0  0  0  0  0  0  0  0  0  0
   19.2050  -10.2450   -2.7700 C   0  0  0  0  0  0  0  0  0  0  0  0
   18.1350   -9.6370   -3.4530 C   0  0  0  0  0  0  0  0  0  0  0  0
   17.1210   -8.9700   -2.7720 C   0  0  0  0  0  0  0  0  0  0  0  0
   17.1520   -8.8770   -1.3790 C   0  0  0  0  0  0  0  0  0  0  0  0
   18.2070   -9.4760   -0.6860 C   0  0  0  0  0  0  0  0  0  0  0  0
   19.2220  -10.1470   -1.3870 C   0  0  0  0  0  0  0  0  0  0  0  0
  1  2  1  0  0  0  0
  2 11  2  0  0  0  0
  2  3  1  0  0  0  0
  3  4  1  0  0  0  0
  4  5  1  0  0  0  0
  6  7  1  0  0  0  0
  6  5  1  0  0  0  0
  8  6  1  0  0  0  0
  9  6  1  0  0  0  0
 10  9  1  0  0  0  0
 10  3  1  0  0  0  0
 12 13  1  0  0  0  0
 12 11  2  0  0  0  0
 14 13  1  0  0  0  0
 15 14  2  0  0  0  0
 16 15  1  0  0  0  0
 16 17  2  0  0  0  0
 17  1  1  0  0  0  0
 17 12  1  0  0  0  0
 18  1  1  0  0  0  0
 18 19  1  0  0  0  0
 19 24  2  0  0  0  0
 20 21  2  0  0  0  0
 20 19  1  0  0  0  0
 21 22  1  0  0  0  0
 22 23  2  0  0  0  0
 24 23  1  0  0  0  0
M  END
>  <minimizedAffinity>
-6.73631144

$$$$
