
 OpenBabel12271915413D

 42 46  0  0  1  0  0  0  0  0999 V2000
   19.3550  -11.0800   -1.1930 C   0  0  1  0  0  0  0  0  0  0  0  0
   20.4710  -10.7410   -2.3070 C   0  0  1  0  0  0  0  0  0  0  0  0
   20.0940  -10.0200   -3.6730 C   0  0  0  0  0  0  0  0  0  0  0  0
   18.7580   -9.7010   -3.8690 C   0  0  0  0  0  0  0  0  0  0  0  0
   18.4680   -8.9670   -4.9910 C   0  0  0  0  0  0  0  0  0  0  0  0
   17.1440   -8.5370   -5.3360 O   0  0  0  0  0  0  0  0  0  0  0  0
   17.5990   -7.6810   -6.4250 C   0  0  0  0  0  0  0  0  0  0  0  0
   18.9200   -7.7970   -6.9490 O   0  0  0  0  0  0  0  0  0  0  0  0
   19.4160   -8.5480   -5.9190 C   0  0  0  0  0  0  0  0  0  0  0  0
   20.7710   -8.8470   -5.7700 C   0  0  0  0  0  0  0  0  0  0  0  0
   21.0980   -9.5900   -4.6250 C   0  0  0  0  0  0  0  0  0  0  0  0
   22.5970   -9.7950   -4.4330 C   0  0  0  0  0  0  0  0  0  0  0  0
   23.1830   -9.6350   -3.0250 C   0  0  0  0  0  0  0  0  0  0  0  0
   22.2960   -8.8470   -2.1130 N   0  0  2  0  0  0  0  0  0  0  0  0
   21.7540   -8.1450   -2.6360 H   0  0  0  0  0  0  0  0  0  0  0  0
   23.0760   -8.1850   -1.0090 C   0  0  0  0  0  0  0  0  0  0  0  0
   23.2930   -9.3670   -0.0390 C   0  0  0  0  0  0  0  0  0  0  0  0
   22.1750  -10.3720   -0.2890 C   0  0  0  0  0  0  0  0  0  0  0  0
   21.3050   -9.6930   -1.3740 C   0  0  2  0  0  0  0  0  0  0  0  0
   20.1270   -8.9260   -0.7280 C   0  0  0  0  0  0  0  0  0  0  0  0
   18.9810   -9.6610   -0.6900 C   0  0  2  0  0  0  0  0  0  0  0  0
   17.9480   -9.3200    0.1450 O   0  0  0  0  0  0  0  0  0  0  0  0
   16.7150   -9.2840   -0.5120 C   0  0  0  0  0  0  0  0  0  0  0  0
   18.2490  -11.9110   -1.6760 O   0  0  0  0  0  0  0  0  0  0  0  0
   18.5170  -13.2660   -1.4800 C   0  0  0  0  0  0  0  0  0  0  0  0
   18.6420  -13.7020   -0.3420 O   0  0  0  0  0  0  0  0  0  0  0  0
   18.5500  -14.0900   -2.7640 C   0  0  2  0  0  0  0  0  0  0  0  0
   17.8640  -13.3890   -3.7860 O   0  0  0  0  0  0  0  0  0  0  0  0
   17.0480  -13.0660   -3.4450 H   0  0  0  0  0  0  0  0  0  0  0  0
   17.9100  -15.4770   -2.7290 C   0  0  0  0  0  0  0  0  0  0  0  0
   16.4220  -15.2750   -2.8880 C   0  0  0  0  0  0  0  0  0  0  0  0
   15.7400  -14.6540   -2.1180 O   0  0  0  0  0  0  0  0  0  0  0  0
   16.0160  -15.7530   -4.0980 O   0  0  0  0  0  0  0  0  0  0  0  0
   16.4120  -17.0860   -4.3620 C   0  0  0  0  0  0  0  0  0  0  0  0
   20.0560  -14.2140   -3.2290 C   0  0  0  0  0  0  0  0  0  0  0  0
   20.7900  -15.2900   -2.4500 C   0  0  0  0  0  0  0  0  0  0  0  0
   22.2920  -15.2810   -2.5410 C   0  0  0  0  0  0  0  0  0  0  0  0
   23.0380  -14.4560   -1.5050 C   0  0  0  0  0  0  0  0  0  0  0  0
   22.1570  -14.0870   -0.3200 C   0  0  0  0  0  0  0  0  0  0  0  0
   23.4750  -13.1100   -2.1640 C   0  0  0  0  0  0  0  0  0  0  0  0
   24.1780  -15.1390   -1.0560 O   0  0  0  0  0  0  0  0  0  0  0  0
   24.5790  -15.6300   -1.7410 H   0  0  0  0  0  0  0  0  0  0  0  0
  1 24  1  6  0  0  0
  1 21  1  0  0  0  0
  2 19  1  1  0  0  0
  2  1  1  0  0  0  0
  3  2  1  0  0  0  0
  4  3  1  0  0  0  0
  5  4  2  0  0  0  0
  6  5  1  0  0  0  0
  7  6  1  0  0  0  0
  8  7  1  0  0  0  0
  8  9  1  0  0  0  0
  9 10  2  0  0  0  0
  9  5  1  0  0  0  0
 10 11  1  0  0  0  0
 11 12  1  0  0  0  0
 11  3  2  0  0  0  0
 12 13  1  0  0  0  0
 13 14  1  0  0  0  0
 14 19  1  1  0  0  0
 14 16  1  0  0  0  0
 15 14  1  0  0  0  0
 16 17  1  0  0  0  0
 18 17  1  0  0  0  0
 19 20  1  1  0  0  0
 19 18  1  0  0  0  0
 20 21  1  0  0  0  0
 21 22  1  1  0  0  0
 23 22  1  0  0  0  0
 24 25  1  0  0  0  0
 25 26  2  0  0  0  0
 27 35  1  6  0  0  0
 27 30  1  0  0  0  0
 27 25  1  0  0  0  0
 28 29  1  0  0  0  0
 28 27  1  0  0  0  0
 31 30  1  0  0  0  0
 31 32  2  0  0  0  0
 33 31  1  0  0  0  0
 34 33  1  0  0  0  0
 35 36  1  0  0  0  0
 37 36  1  0  0  0  0
 37 38  1  0  0  0  0
 38 41  1  0  0  0  0
 38 39  1  0  0  0  0
 40 38  1  0  0  0  0
 42 41  1  0  0  0  0
M  END
>  <minimizedAffinity>
-8.05938244

$$$$

 OpenBabel12271915413D

 42 46  0  0  1  0  0  0  0  0999 V2000
   21.4850   -9.3390   -2.8060 C   0  0  1  0  0  0  0  0  0  0  0  0
   22.9410   -9.2140   -2.1240 C   0  0  1  0  0  0  0  0  0  0  0  0
   23.6940  -10.4800   -1.5260 C   0  0  0  0  0  0  0  0  0  0  0  0
   23.0380  -11.7000   -1.6090 C   0  0  0  0  0  0  0  0  0  0  0  0
   23.7520  -12.8010   -1.2060 C   0  0  0  0  0  0  0  0  0  0  0  0
   23.2340  -14.1370   -1.2450 O   0  0  0  0  0  0  0  0  0  0  0  0
   24.5180  -14.7500   -0.9240 C   0  0  0  0  0  0  0  0  0  0  0  0
   25.5960  -13.9710   -0.4080 O   0  0  0  0  0  0  0  0  0  0  0  0
   25.0560  -12.7550   -0.7240 C   0  0  0  0  0  0  0  0  0  0  0  0
   25.7570  -11.5520   -0.6160 C   0  0  0  0  0  0  0  0  0  0  0  0
   25.0530  -10.4100   -1.0300 C   0  0  0  0  0  0  0  0  0  0  0  0
   25.8880   -9.1350   -1.0110 C   0  0  0  0  0  0  0  0  0  0  0  0
   25.7660   -8.1620   -2.1900 C   0  0  0  0  0  0  0  0  0  0  0  0
   25.2030   -8.8060   -3.4180 N   0  0  2  0  0  0  0  0  0  0  0  0
   25.4600   -9.8010   -3.4670 H   0  0  0  0  0  0  0  0  0  0  0  0
   25.6360   -8.0930   -4.6710 C   0  0  0  0  0  0  0  0  0  0  0  0
   24.6830   -6.8800   -4.6760 C   0  0  0  0  0  0  0  0  0  0  0  0
   23.4430   -7.2700   -3.8790 C   0  0  0  0  0  0  0  0  0  0  0  0
   23.7080   -8.7430   -3.4860 C   0  0  2  0  0  0  0  0  0  0  0  0
   23.0480   -9.7060   -4.5010 C   0  0  0  0  0  0  0  0  0  0  0  0
   21.8180  -10.1300   -4.1000 C   0  0  2  0  0  0  0  0  0  0  0  0
   20.9310  -10.6790   -4.9900 O   0  0  0  0  0  0  0  0  0  0  0  0
   20.4090   -9.7370   -5.8800 C   0  0  0  0  0  0  0  0  0  0  0  0
   20.4560   -9.9180   -1.9370 O   0  0  0  0  0  0  0  0  0  0  0  0
   19.2210   -9.3040   -2.1450 C   0  0  0  0  0  0  0  0  0  0  0  0
   19.1770   -8.1670   -2.5980 O   0  0  0  0  0  0  0  0  0  0  0  0
   18.0200  -10.1940   -1.8390 C   0  0  2  0  0  0  0  0  0  0  0  0
   17.6180  -10.8580   -3.0240 O   0  0  0  0  0  0  0  0  0  0  0  0
   17.5860  -10.2380   -3.7310 H   0  0  0  0  0  0  0  0  0  0  0  0
   16.7570   -9.5170   -1.3100 C   0  0  0  0  0  0  0  0  0  0  0  0
   15.7340   -9.5740   -2.4190 C   0  0  0  0  0  0  0  0  0  0  0  0
   14.8170  -10.3490   -2.4510 O   0  0  0  0  0  0  0  0  0  0  0  0
   15.9140   -8.5240   -3.2700 O   0  0  0  0  0  0  0  0  0  0  0  0
   15.7180   -7.2530   -2.6790 C   0  0  0  0  0  0  0  0  0  0  0  0
   18.4850  -11.3140   -0.8250 C   0  0  0  0  0  0  0  0  0  0  0  0
   18.1050  -12.6990   -1.3180 C   0  0  0  0  0  0  0  0  0  0  0  0
   18.9810  -13.8370   -0.8680 C   0  0  0  0  0  0  0  0  0  0  0  0
   19.6730  -14.6420   -1.9550 C   0  0  0  0  0  0  0  0  0  0  0  0
   20.2060  -13.7590   -3.0750 C   0  0  0  0  0  0  0  0  0  0  0  0
   18.6250  -15.5960   -2.6090 C   0  0  0  0  0  0  0  0  0  0  0  0
   20.7170  -15.4080   -1.4160 O   0  0  0  0  0  0  0  0  0  0  0  0
   20.5090  -15.7260   -0.5640 H   0  0  0  0  0  0  0  0  0  0  0  0
  1  2  1  0  0  0  0
  1 24  1  1  0  0  0
  2 19  1  6  0  0  0
  2  3  1  0  0  0  0
  3 11  1  0  0  0  0
  4  3  2  0  0  0  0
  4  5  1  0  0  0  0
  5  9  2  0  0  0  0
  6  5  1  0  0  0  0
  6  7  1  0  0  0  0
  7  8  1  0  0  0  0
  9 10  1  0  0  0  0
  9  8  1  0  0  0  0
 11 12  1  0  0  0  0
 11 10  2  0  0  0  0
 13 12  1  0  0  0  0
 14 19  1  1  0  0  0
 14 13  1  0  0  0  0
 15 14  1  0  0  0  0
 16 14  1  0  0  0  0
 17 16  1  0  0  0  0
 17 18  1  0  0  0  0
 18 19  1  0  0  0  0
 19 20  1  6  0  0  0
 20 21  1  0  0  0  0
 21 22  1  6  0  0  0
 21  1  1  0  0  0  0
 23 22  1  0  0  0  0
 25 24  1  0  0  0  0
 25 27  1  0  0  0  0
 26 25  2  0  0  0  0
 27 30  1  1  0  0  0
 27 35  1  0  0  0  0
 28 27  1  0  0  0  0
 29 28  1  0  0  0  0
 31 30  1  0  0  0  0
 32 31  2  0  0  0  0
 33 34  1  0  0  0  0
 33 31  1  0  0  0  0
 36 37  1  0  0  0  0
 36 35  1  0  0  0  0
 38 41  1  0  0  0  0
 38 37  1  0  0  0  0
 39 38  1  0  0  0  0
 40 38  1  0  0  0  0
 41 42  1  0  0  0  0
M  END
>  <minimizedAffinity>
-7.28986788

$$$$

 OpenBabel12271915413D

 42 46  0  0  1  0  0  0  0  0999 V2000
   21.7040  -10.8360   -1.9960 C   0  0  1  0  0  0  0  0  0  0  0  0
   23.1180  -10.8510   -2.7730 C   0  0  1  0  0  0  0  0  0  0  0  0
   23.6450   -9.5800   -3.5700 C   0  0  0  0  0  0  0  0  0  0  0  0
   22.8310   -8.4570   -3.5730 C   0  0  0  0  0  0  0  0  0  0  0  0
   23.3560   -7.3290   -4.1540 C   0  0  0  0  0  0  0  0  0  0  0  0
   22.6580   -6.0780   -4.2270 O   0  0  0  0  0  0  0  0  0  0  0  0
   23.8200   -5.3460   -4.7170 C   0  0  0  0  0  0  0  0  0  0  0  0
   24.9610   -6.0330   -5.2250 O   0  0  0  0  0  0  0  0  0  0  0  0
   24.6200   -7.2610   -4.7310 C   0  0  0  0  0  0  0  0  0  0  0  0
   25.4740   -8.3650   -4.7570 C   0  0  0  0  0  0  0  0  0  0  0  0
   24.9670   -9.5300   -4.1610 C   0  0  0  0  0  0  0  0  0  0  0  0
   25.9700  -10.6760   -4.1020 C   0  0  0  0  0  0  0  0  0  0  0  0
   26.0610  -11.5040   -2.8140 C   0  0  0  0  0  0  0  0  0  0  0  0
   25.4920  -10.7930   -1.6260 N   0  0  2  0  0  0  0  0  0  0  0  0
   25.6090   -9.7740   -1.7110 H   0  0  0  0  0  0  0  0  0  0  0  0
   26.0990  -11.2810   -0.3380 C   0  0  0  0  0  0  0  0  0  0  0  0
   25.3290  -12.6000   -0.1200 C   0  0  0  0  0  0  0  0  0  0  0  0
   23.9990  -12.4790   -0.8540 C   0  0  0  0  0  0  0  0  0  0  0  0
   24.0280  -11.0440   -1.4320 C   0  0  2  0  0  0  0  0  0  0  0  0
   23.3050  -10.0590   -0.4840 C   0  0  0  0  0  0  0  0  0  0  0  0
   22.0040   -9.8550   -0.8310 C   0  0  2  0  0  0  0  0  0  0  0  0
   21.1070   -9.3220    0.0580 O   0  0  0  0  0  0  0  0  0  0  0  0
   20.6360   -8.0670   -0.3370 C   0  0  0  0  0  0  0  0  0  0  0  0
   20.5510  -10.5100   -2.8400 O   0  0  0  0  0  0  0  0  0  0  0  0
   19.7320  -11.6240   -3.0190 C   0  0  0  0  0  0  0  0  0  0  0  0
   20.0790  -12.5170   -3.7820 O   0  0  0  0  0  0  0  0  0  0  0  0
   18.4800  -11.6280   -2.1460 C   0  0  2  0  0  0  0  0  0  0  0  0
   17.3590  -11.9750   -2.9400 O   0  0  0  0  0  0  0  0  0  0  0  0
   17.3820  -11.4810   -3.7410 H   0  0  0  0  0  0  0  0  0  0  0  0
   18.0960  -10.3200   -1.4580 C   0  0  0  0  0  0  0  0  0  0  0  0
   17.0180   -9.6820   -2.3030 C   0  0  0  0  0  0  0  0  0  0  0  0
   17.2200   -9.1450   -3.3590 O   0  0  0  0  0  0  0  0  0  0  0  0
   15.7920   -9.9530   -1.7730 O   0  0  0  0  0  0  0  0  0  0  0  0
   14.7430   -9.1550   -2.2890 C   0  0  0  0  0  0  0  0  0  0  0  0
   18.6410  -12.7680   -1.0630 C   0  0  0  0  0  0  0  0  0  0  0  0
   17.7300  -13.9460   -1.3590 C   0  0  0  0  0  0  0  0  0  0  0  0
   18.3340  -15.0880   -2.1310 C   0  0  0  0  0  0  0  0  0  0  0  0
   17.7060  -15.4170   -3.4750 C   0  0  0  0  0  0  0  0  0  0  0  0
   16.2210  -15.7320   -3.3550 C   0  0  0  0  0  0  0  0  0  0  0  0
   18.3840  -16.7060   -4.0370 C   0  0  0  0  0  0  0  0  0  0  0  0
   17.8970  -14.3650   -4.3820 O   0  0  0  0  0  0  0  0  0  0  0  0
   18.7260  -13.9530   -4.2640 H   0  0  0  0  0  0  0  0  0  0  0  0
  1 24  1  6  0  0  0
  1 21  1  0  0  0  0
  2  1  1  0  0  0  0
  2 19  1  1  0  0  0
  3  2  1  0  0  0  0
  4  3  1  0  0  0  0
  5  4  2  0  0  0  0
  6  5  1  0  0  0  0
  7  6  1  0  0  0  0
  8  9  1  0  0  0  0
  8  7  1  0  0  0  0
  9  5  1  0  0  0  0
 10  9  2  0  0  0  0
 10 11  1  0  0  0  0
 11 12  1  0  0  0  0
 11  3  2  0  0  0  0
 12 13  1  0  0  0  0
 13 14  1  0  0  0  0
 14 19  1  1  0  0  0
 14 16  1  0  0  0  0
 15 14  1  0  0  0  0
 16 17  1  0  0  0  0
 18 17  1  0  0  0  0
 19 18  1  1  0  0  0
 19 20  1  0  0  0  0
 21 20  1  0  0  0  0
 21 22  1  1  0  0  0
 23 22  1  0  0  0  0
 25 24  1  0  0  0  0
 25 27  1  0  0  0  0
 26 25  2  0  0  0  0
 27 30  1  1  0  0  0
 27 35  1  0  0  0  0
 28 27  1  0  0  0  0
 29 28  1  0  0  0  0
 31 33  1  0  0  0  0
 31 30  1  0  0  0  0
 32 31  2  0  0  0  0
 34 33  1  0  0  0  0
 36 35  1  0  0  0  0
 37 36  1  0  0  0  0
 38 39  1  0  0  0  0
 38 37  1  0  0  0  0
 40 38  1  0  0  0  0
 41 42  1  0  0  0  0
 41 38  1  0  0  0  0
M  END
>  <minimizedAffinity>
-7.25091267

$$$$

 OpenBabel12271915413D

 42 46  0  0  1  0  0  0  0  0999 V2000
   21.8980  -10.3900   -2.9380 C   0  0  1  0  0  0  0  0  0  0  0  0
   22.7550   -9.2450   -3.6820 C   0  0  1  0  0  0  0  0  0  0  0  0
   22.7000   -7.7260   -3.2170 C   0  0  0  0  0  0  0  0  0  0  0  0
   21.8740   -7.4260   -2.1430 C   0  0  0  0  0  0  0  0  0  0  0  0
   21.9350   -6.1380   -1.6720 C   0  0  0  0  0  0  0  0  0  0  0  0
   21.1630   -5.6650   -0.5600 O   0  0  0  0  0  0  0  0  0  0  0  0
   21.8630   -4.3880   -0.4910 C   0  0  0  0  0  0  0  0  0  0  0  0
   22.6840   -3.9400   -1.5680 O   0  0  0  0  0  0  0  0  0  0  0  0
   22.7510   -5.1460   -2.2070 C   0  0  0  0  0  0  0  0  0  0  0  0
   23.5960   -5.3960   -3.2900 C   0  0  0  0  0  0  0  0  0  0  0  0
   23.5610   -6.7090   -3.7870 C   0  0  0  0  0  0  0  0  0  0  0  0
   24.5810   -6.9760   -4.8870 C   0  0  0  0  0  0  0  0  0  0  0  0
   25.3650   -8.2930   -4.8550 C   0  0  0  0  0  0  0  0  0  0  0  0
   25.3680   -8.9330   -3.5020 N   0  0  2  0  0  0  0  0  0  0  0  0
   25.3240   -8.2260   -2.7560 H   0  0  0  0  0  0  0  0  0  0  0  0
   26.5670   -9.8230   -3.3070 C   0  0  0  0  0  0  0  0  0  0  0  0
   26.1380  -11.0870   -4.0820 C   0  0  0  0  0  0  0  0  0  0  0  0
   24.6140  -11.1090   -4.1100 C   0  0  0  0  0  0  0  0  0  0  0  0
   24.2130   -9.8630   -3.2850 C   0  0  2  0  0  0  0  0  0  0  0  0
   23.9390  -10.2480   -1.8120 C   0  0  0  0  0  0  0  0  0  0  0  0
   22.6180  -10.4700   -1.5660 C   0  0  2  0  0  0  0  0  0  0  0  0
   22.2100  -11.1590   -0.4520 O   0  0  0  0  0  0  0  0  0  0  0  0
   22.4260  -12.5350   -0.5620 C   0  0  0  0  0  0  0  0  0  0  0  0
   20.4540  -10.1390   -2.9010 O   0  0  0  0  0  0  0  0  0  0  0  0
   19.7360  -11.3290   -3.0180 C   0  0  0  0  0  0  0  0  0  0  0  0
   20.1210  -12.1970   -3.7920 O   0  0  0  0  0  0  0  0  0  0  0  0
   18.5450  -11.4380   -2.0700 C   0  0  2  0  0  0  0  0  0  0  0  0
   17.3940  -11.8070   -2.8080 O   0  0  0  0  0  0  0  0  0  0  0  0
   17.3410  -11.2760   -3.5840 H   0  0  0  0  0  0  0  0  0  0  0  0
   18.1420  -10.1850   -1.2960 C   0  0  0  0  0  0  0  0  0  0  0  0
   16.9990   -9.5520   -2.0540 C   0  0  0  0  0  0  0  0  0  0  0  0
   17.0980   -9.0850   -3.1560 O   0  0  0  0  0  0  0  0  0  0  0  0
   15.8320   -9.7420   -1.3750 O   0  0  0  0  0  0  0  0  0  0  0  0
   14.7950   -8.8480   -1.7360 C   0  0  0  0  0  0  0  0  0  0  0  0
   18.8320  -12.6160   -1.0560 C   0  0  0  0  0  0  0  0  0  0  0  0
   17.8740  -13.7740   -1.2670 C   0  0  0  0  0  0  0  0  0  0  0  0
   18.4020  -14.9560   -2.0350 C   0  0  0  0  0  0  0  0  0  0  0  0
   17.7530  -15.2470   -3.3780 C   0  0  0  0  0  0  0  0  0  0  0  0
   16.2540  -15.4810   -3.2550 C   0  0  0  0  0  0  0  0  0  0  0  0
   18.3600  -16.5680   -3.9460 C   0  0  0  0  0  0  0  0  0  0  0  0
   17.9980  -14.2030   -4.2830 O   0  0  0  0  0  0  0  0  0  0  0  0
   18.8480  -13.8370   -4.1660 H   0  0  0  0  0  0  0  0  0  0  0  0
  1 24  1  1  0  0  0
  1 21  1  0  0  0  0
  2 19  1  1  0  0  0
  2  3  1  0  0  0  0
  2  1  1  0  0  0  0
  3  4  2  0  0  0  0
  4  5  1  0  0  0  0
  5  6  1  0  0  0  0
  6  7  1  0  0  0  0
  8  7  1  0  0  0  0
  9  5  2  0  0  0  0
  9  8  1  0  0  0  0
 10  9  1  0  0  0  0
 11 10  2  0  0  0  0
 11  3  1  0  0  0  0
 12 13  1  0  0  0  0
 12 11  1  0  0  0  0
 13 14  1  0  0  0  0
 14 16  1  0  0  0  0
 14 19  1  1  0  0  0
 14 15  1  0  0  0  0
 17 16  1  0  0  0  0
 18 17  1  0  0  0  0
 19 18  1  6  0  0  0
 19 20  1  0  0  0  0
 20 21  1  0  0  0  0
 21 22  1  6  0  0  0
 23 22  1  0  0  0  0
 25 24  1  0  0  0  0
 25 27  1  0  0  0  0
 26 25  2  0  0  0  0
 27 30  1  1  0  0  0
 27 35  1  0  0  0  0
 28 27  1  0  0  0  0
 29 28  1  0  0  0  0
 31 33  1  0  0  0  0
 31 30  1  0  0  0  0
 32 31  2  0  0  0  0
 34 33  1  0  0  0  0
 36 35  1  0  0  0  0
 37 36  1  0  0  0  0
 38 39  1  0  0  0  0
 38 37  1  0  0  0  0
 40 38  1  0  0  0  0
 41 42  1  0  0  0  0
 41 38  1  0  0  0  0
M  END
>  <minimizedAffinity>
-7.09779119

$$$$

 OpenBabel12271915413D

 42 46  0  0  1  0  0  0  0  0999 V2000
   22.4090   -9.3930   -1.2800 C   0  0  1  0  0  0  0  0  0  0  0  0
   23.3730  -10.5670   -0.7380 C   0  0  1  0  0  0  0  0  0  0  0  0
   23.0540  -12.1010   -1.0100 C   0  0  0  0  0  0  0  0  0  0  0  0
   21.9030  -12.3860   -1.7310 C   0  0  0  0  0  0  0  0  0  0  0  0
   21.7090  -13.7020   -2.0690 C   0  0  0  0  0  0  0  0  0  0  0  0
   20.5850  -14.1680   -2.8270 O   0  0  0  0  0  0  0  0  0  0  0  0
   21.1250  -15.5120   -2.9890 C   0  0  0  0  0  0  0  0  0  0  0  0
   22.2140  -15.9680   -2.1900 O   0  0  0  0  0  0  0  0  0  0  0  0
   22.5770  -14.7340   -1.7260 C   0  0  0  0  0  0  0  0  0  0  0  0
   23.7440  -14.5000   -0.9970 C   0  0  0  0  0  0  0  0  0  0  0  0
   23.9730  -13.1600   -0.6460 C   0  0  0  0  0  0  0  0  0  0  0  0
   25.3120  -12.9260    0.0420 C   0  0  0  0  0  0  0  0  0  0  0  0
   26.1420  -11.7030   -0.3660 C   0  0  0  0  0  0  0  0  0  0  0  0
   25.7540  -11.1600   -1.7060 N   0  0  2  0  0  0  0  0  0  0  0  0
   25.4150  -11.9080   -2.3260 H   0  0  0  0  0  0  0  0  0  0  0  0
   26.8880  -10.4150   -2.3570 C   0  0  0  0  0  0  0  0  0  0  0  0
   26.8310   -9.0640   -1.6140 C   0  0  0  0  0  0  0  0  0  0  0  0
   25.4060   -8.8810   -1.1060 C   0  0  0  0  0  0  0  0  0  0  0  0
   24.6650  -10.1330   -1.6350 C   0  0  2  0  0  0  0  0  0  0  0  0
   23.9570   -9.8220   -2.9750 C   0  0  0  0  0  0  0  0  0  0  0  0
   22.6490   -9.4820   -2.8110 C   0  0  2  0  0  0  0  0  0  0  0  0
   21.9550   -8.8320   -3.7990 O   0  0  0  0  0  0  0  0  0  0  0  0
   22.4930   -7.5770   -4.0990 C   0  0  0  0  0  0  0  0  0  0  0  0
   21.0180   -9.4950   -0.8320 O   0  0  0  0  0  0  0  0  0  0  0  0
   20.2870   -8.3690   -1.2100 C   0  0  0  0  0  0  0  0  0  0  0  0
   20.7590   -7.2520   -1.0390 O   0  0  0  0  0  0  0  0  0  0  0  0
   18.9570   -8.6840   -1.8890 C   0  0  2  0  0  0  0  0  0  0  0  0
   17.8980   -8.4140   -0.9880 O   0  0  0  0  0  0  0  0  0  0  0  0
   18.1050   -8.7830   -0.1470 H   0  0  0  0  0  0  0  0  0  0  0  0
   18.7280  -10.1180   -2.3610 C   0  0  0  0  0  0  0  0  0  0  0  0
   17.4730  -10.6070   -1.6770 C   0  0  0  0  0  0  0  0  0  0  0  0
   16.3790  -10.5770   -2.1730 O   0  0  0  0  0  0  0  0  0  0  0  0
   17.7940  -11.2250   -0.5060 O   0  0  0  0  0  0  0  0  0  0  0  0
   18.3970  -12.4970   -0.6620 C   0  0  0  0  0  0  0  0  0  0  0  0
   18.7810   -7.6920   -3.1070 C   0  0  0  0  0  0  0  0  0  0  0  0
   18.2950   -8.4180   -4.3480 C   0  0  0  0  0  0  0  0  0  0  0  0
   19.0810   -8.1940   -5.6110 C   0  0  0  0  0  0  0  0  0  0  0  0
   18.2920   -8.1280   -6.9080 C   0  0  0  0  0  0  0  0  0  0  0  0
   18.6280   -6.8880   -7.7250 C   0  0  0  0  0  0  0  0  0  0  0  0
   16.7740   -8.0260   -6.5600 C   0  0  0  0  0  0  0  0  0  0  0  0
   18.5090   -9.2790   -7.6800 O   0  0  0  0  0  0  0  0  0  0  0  0
   18.6040  -10.0400   -7.1480 H   0  0  0  0  0  0  0  0  0  0  0  0
  1 24  1  6  0  0  0
  1  2  1  0  0  0  0
  2 19  1  6  0  0  0
  3  2  1  0  0  0  0
  3 11  2  0  0  0  0
  4  3  1  0  0  0  0
  5  4  2  0  0  0  0
  5  9  1  0  0  0  0
  6  5  1  0  0  0  0
  7  6  1  0  0  0  0
  7  8  1  0  0  0  0
  8  9  1  0  0  0  0
  9 10  2  0  0  0  0
 10 11  1  0  0  0  0
 11 12  1  0  0  0  0
 13 12  1  0  0  0  0
 14 19  1  1  0  0  0
 14 13  1  0  0  0  0
 15 14  1  0  0  0  0
 16 14  1  0  0  0  0
 16 17  1  0  0  0  0
 17 18  1  0  0  0  0
 19 20  1  6  0  0  0
 19 18  1  0  0  0  0
 20 21  1  0  0  0  0
 21 22  1  6  0  0  0
 21  1  1  0  0  0  0
 23 22  1  0  0  0  0
 25 26  2  0  0  0  0
 25 24  1  0  0  0  0
 27 35  1  6  0  0  0
 27 25  1  0  0  0  0
 27 28  1  0  0  0  0
 28 29  1  0  0  0  0
 30 27  1  0  0  0  0
 30 31  1  0  0  0  0
 31 33  1  0  0  0  0
 32 31  2  0  0  0  0
 34 33  1  0  0  0  0
 36 35  1  0  0  0  0
 37 36  1  0  0  0  0
 38 40  1  0  0  0  0
 38 37  1  0  0  0  0
 39 38  1  0  0  0  0
 41 42  1  0  0  0  0
 41 38  1  0  0  0  0
M  END
>  <minimizedAffinity>
-7.0905962

$$$$

 OpenBabel12271915413D

 42 46  0  0  1  0  0  0  0  0999 V2000
   23.8820  -11.1840   -1.6640 C   0  0  1  0  0  0  0  0  0  0  0  0
   25.1680  -10.5260   -2.3820 C   0  0  1  0  0  0  0  0  0  0  0  0
   25.0610   -9.1690   -3.2040 C   0  0  0  0  0  0  0  0  0  0  0  0
   23.8090   -8.5780   -3.2820 C   0  0  0  0  0  0  0  0  0  0  0  0
   23.7570   -7.3450   -3.8830 C   0  0  0  0  0  0  0  0  0  0  0  0
   22.5490   -6.5870   -4.0320 O   0  0  0  0  0  0  0  0  0  0  0  0
   23.2400   -5.3910   -4.5010 C   0  0  0  0  0  0  0  0  0  0  0  0
   24.5960   -5.4490   -4.9360 O   0  0  0  0  0  0  0  0  0  0  0  0
   24.8620   -6.6840   -4.4100 C   0  0  0  0  0  0  0  0  0  0  0  0
   26.1420   -7.2390   -4.3610 C   0  0  0  0  0  0  0  0  0  0  0  0
   26.2260   -8.4960   -3.7420 C   0  0  0  0  0  0  0  0  0  0  0  0
   27.6520   -9.0150   -3.5990 C   0  0  0  0  0  0  0  0  0  0  0  0
   28.0600   -9.6800   -2.2780 C   0  0  0  0  0  0  0  0  0  0  0  0
   27.1560   -9.3150   -1.1420 N   0  0  2  0  0  0  0  0  0  0  0  0
   26.7730   -8.3680   -1.2610 H   0  0  0  0  0  0  0  0  0  0  0  0
   27.8540   -9.4330    0.1860 C   0  0  0  0  0  0  0  0  0  0  0  0
   27.8020  -10.9570    0.4230 C   0  0  0  0  0  0  0  0  0  0  0  0
   26.6190  -11.5030   -0.3690 C   0  0  0  0  0  0  0  0  0  0  0  0
   25.9850  -10.2390   -0.9980 C   0  0  2  0  0  0  0  0  0  0  0  0
   24.8280   -9.7120   -0.1180 C   0  0  0  0  0  0  0  0  0  0  0  0
   23.6100  -10.1650   -0.5260 C   0  0  2  0  0  0  0  0  0  0  0  0
   22.5210  -10.1190    0.3060 O   0  0  0  0  0  0  0  0  0  0  0  0
   21.5700   -9.1800   -0.1030 C   0  0  0  0  0  0  0  0  0  0  0  0
   22.7620  -11.4660   -2.5660 O   0  0  0  0  0  0  0  0  0  0  0  0
   22.3500  -12.7940   -2.4540 C   0  0  0  0  0  0  0  0  0  0  0  0
   23.1840  -13.6770   -2.2930 O   0  0  0  0  0  0  0  0  0  0  0  0
   20.8360  -12.9840   -2.4710 C   0  0  2  0  0  0  0  0  0  0  0  0
   20.3630  -12.8380   -3.7980 O   0  0  0  0  0  0  0  0  0  0  0  0
   20.7540  -12.0730   -4.1840 H   0  0  0  0  0  0  0  0  0  0  0  0
   19.9940  -12.0220   -1.6360 C   0  0  0  0  0  0  0  0  0  0  0  0
   19.0800  -11.2970   -2.5950 C   0  0  0  0  0  0  0  0  0  0  0  0
   17.9560  -11.6420   -2.8450 O   0  0  0  0  0  0  0  0  0  0  0  0
   19.6580  -10.1290   -2.9930 O   0  0  0  0  0  0  0  0  0  0  0  0
   19.0190   -9.5050   -4.0910 C   0  0  0  0  0  0  0  0  0  0  0  0
   20.5240  -14.4730   -2.0390 C   0  0  0  0  0  0  0  0  0  0  0  0
   19.9450  -15.2740   -3.1900 C   0  0  0  0  0  0  0  0  0  0  0  0
   18.6540  -16.0000   -2.9230 C   0  0  0  0  0  0  0  0  0  0  0  0
   17.3710  -15.2900   -3.3240 C   0  0  0  0  0  0  0  0  0  0  0  0
   16.6150  -14.7450   -2.1200 C   0  0  0  0  0  0  0  0  0  0  0  0
   16.4240  -16.3250   -4.0070 C   0  0  0  0  0  0  0  0  0  0  0  0
   17.6420  -14.2500   -4.2250 O   0  0  0  0  0  0  0  0  0  0  0  0
   18.3380  -14.4690   -4.8070 H   0  0  0  0  0  0  0  0  0  0  0  0
  1 24  1  6  0  0  0
  1 21  1  0  0  0  0
  2  1  1  0  0  0  0
  2 19  1  1  0  0  0
  3  2  1  0  0  0  0
  4  3  1  0  0  0  0
  5  4  2  0  0  0  0
  6  5  1  0  0  0  0
  7  6  1  0  0  0  0
  8  7  1  0  0  0  0
  8  9  1  0  0  0  0
  9 10  2  0  0  0  0
  9  5  1  0  0  0  0
 10 11  1  0  0  0  0
 11 12  1  0  0  0  0
 11  3  2  0  0  0  0
 12 13  1  0  0  0  0
 13 14  1  0  0  0  0
 14 19  1  6  0  0  0
 14 16  1  0  0  0  0
 15 14  1  0  0  0  0
 16 17  1  0  0  0  0
 18 17  1  0  0  0  0
 19 18  1  1  0  0  0
 19 20  1  0  0  0  0
 21 20  1  0  0  0  0
 21 22  1  1  0  0  0
 23 22  1  0  0  0  0
 24 25  1  0  0  0  0
 25 26  2  0  0  0  0
 27 25  1  0  0  0  0
 27 35  1  1  0  0  0
 27 30  1  0  0  0  0
 28 27  1  0  0  0  0
 29 28  1  0  0  0  0
 31 30  1  0  0  0  0
 32 31  2  0  0  0  0
 33 31  1  0  0  0  0
 34 33  1  0  0  0  0
 36 37  1  0  0  0  0
 36 35  1  0  0  0  0
 38 37  1  0  0  0  0
 38 39  1  0  0  0  0
 40 38  1  0  0  0  0
 41 38  1  0  0  0  0
 42 41  1  0  0  0  0
M  END
>  <minimizedAffinity>
-7.03777885

$$$$

 OpenBabel12271915413D

 42 46  0  0  1  0  0  0  0  0999 V2000
   23.9460  -11.0080   -2.2910 C   0  0  1  0  0  0  0  0  0  0  0  0
   24.4130   -9.7180   -3.1380 C   0  0  1  0  0  0  0  0  0  0  0  0
   23.7250   -8.2980   -2.9450 C   0  0  0  0  0  0  0  0  0  0  0  0
   22.6970   -8.2180   -2.0170 C   0  0  0  0  0  0  0  0  0  0  0  0
   22.2010   -6.9630   -1.7680 C   0  0  0  0  0  0  0  0  0  0  0  0
   21.1520   -6.6990   -0.8260 O   0  0  0  0  0  0  0  0  0  0  0  0
   21.3050   -5.2510   -0.9120 C   0  0  0  0  0  0  0  0  0  0  0  0
   22.0490   -4.6520   -1.9710 O   0  0  0  0  0  0  0  0  0  0  0  0
   22.6570   -5.8040   -2.3880 C   0  0  0  0  0  0  0  0  0  0  0  0
   23.6850   -5.8320   -3.3320 C   0  0  0  0  0  0  0  0  0  0  0  0
   24.2180   -7.1030   -3.5990 C   0  0  0  0  0  0  0  0  0  0  0  0
   25.4150   -7.0800   -4.5420 C   0  0  0  0  0  0  0  0  0  0  0  0
   26.6210   -7.9700   -4.2160 C   0  0  0  0  0  0  0  0  0  0  0  0
   26.6620   -8.3870   -2.7790 N   0  0  2  0  0  0  0  0  0  0  0  0
   26.2450   -7.6690   -2.1710 H   0  0  0  0  0  0  0  0  0  0  0  0
   28.0630   -8.7040   -2.3290 C   0  0  0  0  0  0  0  0  0  0  0  0
   28.2580  -10.1190   -2.9120 C   0  0  0  0  0  0  0  0  0  0  0  0
   26.8760  -10.7410   -3.0740 C   0  0  0  0  0  0  0  0  0  0  0  0
   25.9200   -9.6610   -2.5120 C   0  0  2  0  0  0  0  0  0  0  0  0
   25.5930   -9.9410   -1.0260 C   0  0  0  0  0  0  0  0  0  0  0  0
   24.4310  -10.6320   -0.8650 C   0  0  2  0  0  0  0  0  0  0  0  0
   24.1500  -11.2840    0.3080 O   0  0  0  0  0  0  0  0  0  0  0  0
   24.9160  -12.4400    0.4780 C   0  0  0  0  0  0  0  0  0  0  0  0
   22.5250  -11.3410   -2.4270 O   0  0  0  0  0  0  0  0  0  0  0  0
   22.3310  -12.7220   -2.4190 C   0  0  0  0  0  0  0  0  0  0  0  0
   23.2980  -13.4710   -2.3460 O   0  0  0  0  0  0  0  0  0  0  0  0
   20.8660  -13.1500   -2.4280 C   0  0  2  0  0  0  0  0  0  0  0  0
   20.2510  -12.6800   -3.6140 O   0  0  0  0  0  0  0  0  0  0  0  0
   20.4870  -11.7790   -3.7500 H   0  0  0  0  0  0  0  0  0  0  0  0
   19.9790  -12.6510   -1.2900 C   0  0  0  0  0  0  0  0  0  0  0  0
   19.0690  -11.5960   -1.8760 C   0  0  0  0  0  0  0  0  0  0  0  0
   17.9810  -11.8230   -2.3300 O   0  0  0  0  0  0  0  0  0  0  0  0
   19.5960  -10.3580   -1.6590 O   0  0  0  0  0  0  0  0  0  0  0  0
   19.2030   -9.3820   -2.6060 C   0  0  0  0  0  0  0  0  0  0  0  0
   20.8160  -14.7290   -2.4840 C   0  0  0  0  0  0  0  0  0  0  0  0
   19.4990  -15.2610   -1.9500 C   0  0  0  0  0  0  0  0  0  0  0  0
   18.6020  -15.9550   -2.9400 C   0  0  0  0  0  0  0  0  0  0  0  0
   17.2960  -15.2590   -3.2880 C   0  0  0  0  0  0  0  0  0  0  0  0
   16.5480  -14.7860   -2.0490 C   0  0  0  0  0  0  0  0  0  0  0  0
   16.3620  -16.2860   -4.0010 C   0  0  0  0  0  0  0  0  0  0  0  0
   17.5260  -14.1740   -4.1470 O   0  0  0  0  0  0  0  0  0  0  0  0
   18.2170  -14.3510   -4.7490 H   0  0  0  0  0  0  0  0  0  0  0  0
  1 24  1  1  0  0  0
  1 21  1  0  0  0  0
  2  3  1  0  0  0  0
  2 19  1  1  0  0  0
  2  1  1  0  0  0  0
  3  4  2  0  0  0  0
  4  5  1  0  0  0  0
  5  6  1  0  0  0  0
  7  6  1  0  0  0  0
  8  7  1  0  0  0  0
  9  8  1  0  0  0  0
  9  5  2  0  0  0  0
 10  9  1  0  0  0  0
 11 10  2  0  0  0  0
 11  3  1  0  0  0  0
 12 13  1  0  0  0  0
 12 11  1  0  0  0  0
 13 14  1  0  0  0  0
 14 19  1  1  0  0  0
 14 16  1  0  0  0  0
 14 15  1  0  0  0  0
 17 16  1  0  0  0  0
 18 17  1  0  0  0  0
 19 18  1  6  0  0  0
 19 20  1  0  0  0  0
 20 21  1  0  0  0  0
 21 22  1  1  0  0  0
 22 23  1  0  0  0  0
 24 25  1  0  0  0  0
 25 26  2  0  0  0  0
 27 35  1  6  0  0  0
 27 25  1  0  0  0  0
 27 30  1  0  0  0  0
 28 27  1  0  0  0  0
 29 28  1  0  0  0  0
 31 33  1  0  0  0  0
 31 30  1  0  0  0  0
 32 31  2  0  0  0  0
 34 33  1  0  0  0  0
 35 36  1  0  0  0  0
 37 36  1  0  0  0  0
 38 37  1  0  0  0  0
 38 39  1  0  0  0  0
 40 38  1  0  0  0  0
 41 38  1  0  0  0  0
 42 41  1  0  0  0  0
M  END
>  <minimizedAffinity>
-6.88928747

$$$$

 OpenBabel12271915413D

 42 46  0  0  1  0  0  0  0  0999 V2000
   21.9840   -9.3120   -2.1170 C   0  0  1  0  0  0  0  0  0  0  0  0
   22.9460  -10.3670   -1.3650 C   0  0  1  0  0  0  0  0  0  0  0  0
   22.6280  -11.9240   -1.3530 C   0  0  0  0  0  0  0  0  0  0  0  0
   21.4800  -12.3380   -2.0140 C   0  0  0  0  0  0  0  0  0  0  0  0
   21.2870  -13.6940   -2.1050 C   0  0  0  0  0  0  0  0  0  0  0  0
   20.1650  -14.2910   -2.7690 O   0  0  0  0  0  0  0  0  0  0  0  0
   20.7060  -15.6420   -2.6800 C   0  0  0  0  0  0  0  0  0  0  0  0
   21.7920  -15.9430   -1.8070 O   0  0  0  0  0  0  0  0  0  0  0  0
   22.1530  -14.6450   -1.5760 C   0  0  0  0  0  0  0  0  0  0  0  0
   23.3180  -14.2800   -0.8980 C   0  0  0  0  0  0  0  0  0  0  0  0
   23.5450  -12.8980   -0.7980 C   0  0  0  0  0  0  0  0  0  0  0  0
   24.8820  -12.5410   -0.1590 C   0  0  0  0  0  0  0  0  0  0  0  0
   25.7130  -11.4130   -0.7820 C   0  0  0  0  0  0  0  0  0  0  0  0
   25.3300  -11.1250   -2.2000 N   0  0  2  0  0  0  0  0  0  0  0  0
   24.9940  -11.9740   -2.6740 H   0  0  0  0  0  0  0  0  0  0  0  0
   26.4670  -10.5110   -2.9720 C   0  0  0  0  0  0  0  0  0  0  0  0
   26.4070   -9.0470   -2.4900 C   0  0  0  0  0  0  0  0  0  0  0  0
   24.9800   -8.7750   -2.0290 C   0  0  0  0  0  0  0  0  0  0  0  0
   24.2410  -10.1030   -2.3230 C   0  0  2  0  0  0  0  0  0  0  0  0
   23.5380  -10.0440   -3.6990 C   0  0  0  0  0  0  0  0  0  0  0  0
   22.2290   -9.6800   -3.6040 C   0  0  2  0  0  0  0  0  0  0  0  0
   21.5390   -9.2220   -4.6980 O   0  0  0  0  0  0  0  0  0  0  0  0
   20.8230  -10.2340   -5.3440 C   0  0  0  0  0  0  0  0  0  0  0  0
   20.5910   -9.3310   -1.6630 O   0  0  0  0  0  0  0  0  0  0  0  0
   19.9250   -8.1650   -2.0400 C   0  0  0  0  0  0  0  0  0  0  0  0
   20.4970   -7.0850   -1.9550 O   0  0  0  0  0  0  0  0  0  0  0  0
   18.5280   -8.3970   -2.6080 C   0  0  2  0  0  0  0  0  0  0  0  0
   17.5680   -7.8550   -1.7200 O   0  0  0  0  0  0  0  0  0  0  0  0
   17.7760   -8.1180   -0.8400 H   0  0  0  0  0  0  0  0  0  0  0  0
   18.0910   -9.8420   -2.8400 C   0  0  0  0  0  0  0  0  0  0  0  0
   16.8970  -10.0850   -1.9470 C   0  0  0  0  0  0  0  0  0  0  0  0
   15.7550   -9.9930   -2.3100 O   0  0  0  0  0  0  0  0  0  0  0  0
   17.3100  -10.5740   -0.7440 O   0  0  0  0  0  0  0  0  0  0  0  0
   18.1330  -11.7230   -0.8320 C   0  0  0  0  0  0  0  0  0  0  0  0
   18.4070   -7.5850   -3.9590 C   0  0  0  0  0  0  0  0  0  0  0  0
   17.7710   -8.4220   -5.0540 C   0  0  0  0  0  0  0  0  0  0  0  0
   16.9350   -7.6850   -6.0660 C   0  0  0  0  0  0  0  0  0  0  0  0
   15.4260   -7.8260   -5.9420 C   0  0  0  0  0  0  0  0  0  0  0  0
   14.8010   -8.4350   -7.1890 C   0  0  0  0  0  0  0  0  0  0  0  0
   14.8070   -6.4010   -5.7900 C   0  0  0  0  0  0  0  0  0  0  0  0
   15.0910   -8.5950   -4.8180 O   0  0  0  0  0  0  0  0  0  0  0  0
   15.6750   -8.4410   -4.1070 H   0  0  0  0  0  0  0  0  0  0  0  0
  1 24  1  1  0  0  0
  1  2  1  0  0  0  0
  2 19  1  6  0  0  0
  2  3  1  0  0  0  0
  3 11  2  0  0  0  0
  4  3  1  0  0  0  0
  5  4  2  0  0  0  0
  5  9  1  0  0  0  0
  6  7  1  0  0  0  0
  6  5  1  0  0  0  0
  7  8  1  0  0  0  0
  8  9  1  0  0  0  0
  9 10  2  0  0  0  0
 10 11  1  0  0  0  0
 11 12  1  0  0  0  0
 13 12  1  0  0  0  0
 14 19  1  1  0  0  0
 14 13  1  0  0  0  0
 15 14  1  0  0  0  0
 16 17  1  0  0  0  0
 16 14  1  0  0  0  0
 17 18  1  0  0  0  0
 19 20  1  6  0  0  0
 19 18  1  0  0  0  0
 20 21  1  0  0  0  0
 21 22  1  6  0  0  0
 21  1  1  0  0  0  0
 23 22  1  0  0  0  0
 25 26  2  0  0  0  0
 25 24  1  0  0  0  0
 27 35  1  6  0  0  0
 27 25  1  0  0  0  0
 27 28  1  0  0  0  0
 28 29  1  0  0  0  0
 30 27  1  0  0  0  0
 30 31  1  0  0  0  0
 31 33  1  0  0  0  0
 32 31  2  0  0  0  0
 34 33  1  0  0  0  0
 36 35  1  0  0  0  0
 37 38  1  0  0  0  0
 37 36  1  0  0  0  0
 38 40  1  0  0  0  0
 38 41  1  0  0  0  0
 39 38  1  0  0  0  0
 41 42  1  0  0  0  0
M  END
>  <minimizedAffinity>
-6.73558521

$$$$

 OpenBabel12271915413D

 42 46  0  0  1  0  0  0  0  0999 V2000
   19.1040  -10.6370   -2.5540 C   0  0  1  0  0  0  0  0  0  0  0  0
   19.6600  -12.1150   -2.8840 C   0  0  1  0  0  0  0  0  0  0  0  0
   21.0560  -12.6260   -2.3220 C   0  0  0  0  0  0  0  0  0  0  0  0
   21.7810  -11.7410   -1.5370 C   0  0  0  0  0  0  0  0  0  0  0  0
   22.9200  -12.2390   -0.9540 C   0  0  0  0  0  0  0  0  0  0  0  0
   23.7750  -11.4660   -0.1000 O   0  0  0  0  0  0  0  0  0  0  0  0
   24.5770  -12.6160    0.3020 C   0  0  0  0  0  0  0  0  0  0  0  0
   24.5130  -13.8450   -0.4190 O   0  0  0  0  0  0  0  0  0  0  0  0
   23.3740  -13.5440   -1.1140 C   0  0  0  0  0  0  0  0  0  0  0  0
   22.6840  -14.4710   -1.8960 C   0  0  0  0  0  0  0  0  0  0  0  0
   21.5090  -13.9910   -2.4970 C   0  0  0  0  0  0  0  0  0  0  0  0
   20.7210  -15.0610   -3.2430 C   0  0  0  0  0  0  0  0  0  0  0  0
   19.1950  -15.0870   -3.0890 C   0  0  0  0  0  0  0  0  0  0  0  0
   18.7230  -14.3610   -1.8680 N   0  0  2  0  0  0  0  0  0  0  0  0
   19.4180  -14.4150   -1.1110 H   0  0  0  0  0  0  0  0  0  0  0  0
   17.3920  -14.8770   -1.3910 C   0  0  0  0  0  0  0  0  0  0  0  0
   16.4260  -14.1820   -2.3740 C   0  0  0  0  0  0  0  0  0  0  0  0
   17.1180  -12.9220   -2.8800 C   0  0  0  0  0  0  0  0  0  0  0  0
   18.4600  -12.9060   -2.1100 C   0  0  2  0  0  0  0  0  0  0  0  0
   18.3510  -12.0310   -0.8390 C   0  0  0  0  0  0  0  0  0  0  0  0
   18.7910  -10.7580   -1.0390 C   0  0  2  0  0  0  0  0  0  0  0  0
   18.4520   -9.7460   -0.1780 O   0  0  0  0  0  0  0  0  0  0  0  0
   17.0700   -9.6180   -0.0150 C   0  0  0  0  0  0  0  0  0  0  0  0
   20.0040   -9.5490   -2.9480 O   0  0  0  0  0  0  0  0  0  0  0  0
   19.3130   -8.5520   -3.6370 C   0  0  0  0  0  0  0  0  0  0  0  0
   18.4980   -7.8570   -3.0430 O   0  0  0  0  0  0  0  0  0  0  0  0
   19.7310   -8.3940   -5.0960 C   0  0  2  0  0  0  0  0  0  0  0  0
   20.3330   -7.1240   -5.2730 O   0  0  0  0  0  0  0  0  0  0  0  0
   19.8030   -6.4690   -4.8540 H   0  0  0  0  0  0  0  0  0  0  0  0
   18.6350   -8.4720   -6.1560 C   0  0  0  0  0  0  0  0  0  0  0  0
   18.3080   -7.0500   -6.5500 C   0  0  0  0  0  0  0  0  0  0  0  0
   17.7460   -6.2660   -5.8340 O   0  0  0  0  0  0  0  0  0  0  0  0
   18.8840   -6.7570   -7.7490 O   0  0  0  0  0  0  0  0  0  0  0  0
   18.8760   -5.3810   -8.0810 C   0  0  0  0  0  0  0  0  0  0  0  0
   20.8450   -9.4730   -5.4060 C   0  0  0  0  0  0  0  0  0  0  0  0
   22.1830   -9.0740   -4.8120 C   0  0  0  0  0  0  0  0  0  0  0  0
   23.1110  -10.1940   -4.4280 C   0  0  0  0  0  0  0  0  0  0  0  0
   24.3920   -9.8080   -3.7060 C   0  0  0  0  0  0  0  0  0  0  0  0
   25.2350   -8.8290   -4.5120 C   0  0  0  0  0  0  0  0  0  0  0  0
   25.2630  -11.0900   -3.5220 C   0  0  0  0  0  0  0  0  0  0  0  0
   24.1060   -9.2630   -2.4460 O   0  0  0  0  0  0  0  0  0  0  0  0
   23.3700   -9.6780   -2.0480 H   0  0  0  0  0  0  0  0  0  0  0  0
  1 24  1  1  0  0  0
  1 21  1  0  0  0  0
  2  1  1  0  0  0  0
  2  3  1  0  0  0  0
  2 19  1  1  0  0  0
  3  4  1  0  0  0  0
  4  5  2  0  0  0  0
  5  6  1  0  0  0  0
  6  7  1  0  0  0  0
  8  7  1  0  0  0  0
  9  5  1  0  0  0  0
  9  8  1  0  0  0  0
 10  9  2  0  0  0  0
 11  3  2  0  0  0  0
 11 10  1  0  0  0  0
 12 13  1  0  0  0  0
 12 11  1  0  0  0  0
 13 14  1  0  0  0  0
 14 19  1  6  0  0  0
 14 16  1  0  0  0  0
 14 15  1  0  0  0  0
 17 16  1  0  0  0  0
 18 17  1  0  0  0  0
 19 18  1  6  0  0  0
 19 20  1  0  0  0  0
 21 20  1  0  0  0  0
 21 22  1  6  0  0  0
 22 23  1  0  0  0  0
 25 26  2  0  0  0  0
 25 24  1  0  0  0  0
 27 30  1  6  0  0  0
 27 25  1  0  0  0  0
 28 27  1  0  0  0  0
 28 29  1  0  0  0  0
 31 30  1  0  0  0  0
 31 32  2  0  0  0  0
 33 31  1  0  0  0  0
 34 33  1  0  0  0  0
 35 27  1  0  0  0  0
 35 36  1  0  0  0  0
 36 37  2  0  0  0  0
 37 38  1  0  0  0  0
 38 40  1  0  0  0  0
 38 41  1  0  0  0  0
 39 38  1  0  0  0  0
 41 42  1  0  0  0  0
M  END
>  <minimizedAffinity>
-6.64142466

$$$$
