
 OpenBabel12271915443D

 24 27  0  0  0  0  0  0  0  0999 V2000
   20.1600  -12.5960   -1.0930 N   0  0  0  0  0  0  0  0  0  0  0  0
   20.0390  -11.3900   -1.7310 C   0  0  0  0  0  0  0  0  0  0  0  0
   18.9040  -10.6370   -1.9900 N   0  0  0  0  0  0  0  0  0  0  0  0
   19.1160   -9.3100   -2.6070 C   0  0  0  0  0  0  0  0  0  0  0  0
   18.2330   -8.2400   -1.9250 C   0  0  0  0  0  0  0  0  0  0  0  0
   16.8190   -8.6910   -1.7880 N   0  0  0  0  0  0  0  0  0  0  0  0
   16.1740   -7.9540   -2.1090 H   0  0  0  0  0  0  0  0  0  0  0  0
   16.6550   -8.8710   -0.7860 H   0  0  0  0  0  0  0  0  0  0  0  0
   16.5770   -9.9830   -2.5050 C   0  0  0  0  0  0  0  0  0  0  0  0
   17.5200  -11.0560   -1.8790 C   0  0  0  0  0  0  0  0  0  0  0  0
   21.2360  -10.9810   -2.0960 N   0  0  0  0  0  0  0  0  0  0  0  0
   22.1540  -11.8990   -1.7190 C   0  0  0  0  0  0  0  0  0  0  0  0
   23.5330  -11.9100   -1.8870 C   0  0  0  0  0  0  0  0  0  0  0  0
   24.2630  -12.9900   -1.4240 C   0  0  0  0  0  0  0  0  0  0  0  0
   23.6110  -14.0460   -0.7980 C   0  0  0  0  0  0  0  0  0  0  0  0
   22.2250  -14.0320   -0.6280 C   0  0  0  0  0  0  0  0  0  0  0  0
   21.5050  -12.9360   -1.0980 C   0  0  0  0  0  0  0  0  0  0  0  0
   19.1600  -13.5020   -0.5650 C   0  0  0  0  0  0  0  0  0  0  0  0
   18.5940  -14.4850   -1.5550 C   0  0  0  0  0  0  0  0  0  0  0  0
   17.2450  -14.4240   -1.8640 C   0  0  0  0  0  0  0  0  0  0  0  0
   16.6880  -15.2440   -2.8540 C   0  0  0  0  0  0  0  0  0  0  0  0
   17.4830  -16.1170   -3.5580 C   0  0  0  0  0  0  0  0  0  0  0  0
   18.8300  -16.1820   -3.2760 C   0  0  0  0  0  0  0  0  0  0  0  0
   19.3730  -15.3750   -2.2860 C   0  0  0  0  0  0  0  0  0  0  0  0
  1 18  1  0  0  0  0
  2  1  1  0  0  0  0
  3 10  1  0  0  0  0
  3  2  1  0  0  0  0
  4  3  1  0  0  0  0
  4  5  1  0  0  0  0
  5  6  1  0  0  0  0
  6  8  1  0  0  0  0
  7  6  1  0  0  0  0
  9 10  1  0  0  0  0
  9  6  1  0  0  0  0
 11  2  2  0  0  0  0
 11 12  2  0  0  0  0
 12 17  1  0  0  0  0
 13 12  1  0  0  0  0
 13 14  2  0  0  0  0
 14 15  1  0  0  0  0
 15 16  1  0  0  0  0
 17  1  1  0  0  0  0
 17 16  2  0  0  0  0
 19 18  1  0  0  0  0
 20 19  1  0  0  0  0
 21 20  2  0  0  0  0
 22 23  2  0  0  0  0
 22 21  1  0  0  0  0
 23 24  1  0  0  0  0
 24 19  2  0  0  0  0
M  END
>  <minimizedAffinity>
-7.78723669

$$$$

 OpenBabel12271915443D

 24 27  0  0  0  0  0  0  0  0999 V2000
   19.0490  -13.9820   -1.6140 N   0  0  0  0  0  0  0  0  0  0  0  0
   20.3330  -14.2410   -2.0140 C   0  0  0  0  0  0  0  0  0  0  0  0
   21.5210  -13.6610   -1.6000 N   0  0  0  0  0  0  0  0  0  0  0  0
   22.7670  -14.2420   -2.1450 C   0  0  0  0  0  0  0  0  0  0  0  0
   23.8300  -14.4020   -1.0340 C   0  0  0  0  0  0  0  0  0  0  0  0
   23.9770  -13.1610   -0.2210 N   0  0  0  0  0  0  0  0  0  0  0  0
   24.9710  -12.9160   -0.1140 H   0  0  0  0  0  0  0  0  0  0  0  0
   23.5740  -13.3590    0.7070 H   0  0  0  0  0  0  0  0  0  0  0  0
   23.1920  -12.0240   -0.8010 C   0  0  0  0  0  0  0  0  0  0  0  0
   21.6910  -12.4470   -0.8240 C   0  0  0  0  0  0  0  0  0  0  0  0
   20.3110  -15.2030   -2.9120 N   0  0  0  0  0  0  0  0  0  0  0  0
   19.0310  -15.5840   -3.1260 C   0  0  0  0  0  0  0  0  0  0  0  0
   18.5130  -16.5510   -3.9770 C   0  0  0  0  0  0  0  0  0  0  0  0
   17.1450  -16.7430   -4.0320 C   0  0  0  0  0  0  0  0  0  0  0  0
   16.3070  -15.9710   -3.2350 C   0  0  0  0  0  0  0  0  0  0  0  0
   16.8300  -15.0020   -2.3770 C   0  0  0  0  0  0  0  0  0  0  0  0
   18.2110  -14.8220   -2.3320 C   0  0  0  0  0  0  0  0  0  0  0  0
   18.5120  -12.9820   -0.7110 C   0  0  0  0  0  0  0  0  0  0  0  0
   18.1980  -11.6500   -1.3390 C   0  0  0  0  0  0  0  0  0  0  0  0
   17.8120  -10.6000   -0.5220 C   0  0  0  0  0  0  0  0  0  0  0  0
   17.6090   -9.3130   -1.0390 C   0  0  0  0  0  0  0  0  0  0  0  0
   17.8120   -9.0650   -2.3750 C   0  0  0  0  0  0  0  0  0  0  0  0
   18.2120  -10.0930   -3.2010 C   0  0  0  0  0  0  0  0  0  0  0  0
   18.3990  -11.3670   -2.6840 C   0  0  0  0  0  0  0  0  0  0  0  0
  1 18  1  0  0  0  0
  2  1  1  0  0  0  0
  2  3  1  0  0  0  0
  3 10  1  0  0  0  0
  4  3  1  0  0  0  0
  4  5  1  0  0  0  0
  5  6  1  0  0  0  0
  6  7  1  0  0  0  0
  6  8  1  0  0  0  0
  9  6  1  0  0  0  0
 10  9  1  0  0  0  0
 11  2  2  0  0  0  0
 12 11  2  0  0  0  0
 12 17  1  0  0  0  0
 13 12  1  0  0  0  0
 14 13  2  0  0  0  0
 14 15  1  0  0  0  0
 15 16  1  0  0  0  0
 16 17  2  0  0  0  0
 17  1  1  0  0  0  0
 19 18  1  0  0  0  0
 19 20  2  0  0  0  0
 21 20  1  0  0  0  0
 22 21  2  0  0  0  0
 23 24  2  0  0  0  0
 23 22  1  0  0  0  0
 24 19  1  0  0  0  0
M  END
>  <minimizedAffinity>
-7.70230722

$$$$

 OpenBabel12271915443D

 24 27  0  0  0  0  0  0  0  0999 V2000
   20.5820  -11.9610   -0.7880 N   0  0  0  0  0  0  0  0  0  0  0  0
   21.7490  -11.2590   -0.9330 C   0  0  0  0  0  0  0  0  0  0  0  0
   23.0590  -11.6780   -0.7660 N   0  0  0  0  0  0  0  0  0  0  0  0
   24.1160  -10.7030   -1.1090 C   0  0  0  0  0  0  0  0  0  0  0  0
   25.2470  -11.3800   -1.9170 C   0  0  0  0  0  0  0  0  0  0  0  0
   25.6970  -12.6530   -1.2850 N   0  0  0  0  0  0  0  0  0  0  0  0
   26.7250  -12.6820   -1.2290 H   0  0  0  0  0  0  0  0  0  0  0  0
   25.3680  -13.4220   -1.8870 H   0  0  0  0  0  0  0  0  0  0  0  0
   25.0690  -12.8550    0.0600 C   0  0  0  0  0  0  0  0  0  0  0  0
   23.5230  -12.9020   -0.1410 C   0  0  0  0  0  0  0  0  0  0  0  0
   21.4600  -10.0270   -1.2960 N   0  0  0  0  0  0  0  0  0  0  0  0
   20.1180   -9.8920   -1.3860 C   0  0  0  0  0  0  0  0  0  0  0  0
   19.3480   -8.7870   -1.7270 C   0  0  0  0  0  0  0  0  0  0  0  0
   17.9690   -8.8960   -1.7280 C   0  0  0  0  0  0  0  0  0  0  0  0
   17.3730  -10.1060   -1.3900 C   0  0  0  0  0  0  0  0  0  0  0  0
   18.1480  -11.2160   -1.0510 C   0  0  0  0  0  0  0  0  0  0  0  0
   19.5360  -11.0900   -1.0570 C   0  0  0  0  0  0  0  0  0  0  0  0
   20.3310  -13.3160   -0.3400 C   0  0  0  0  0  0  0  0  0  0  0  0
   19.9180  -14.2850   -1.4170 C   0  0  0  0  0  0  0  0  0  0  0  0
   18.5820  -14.6370   -1.5240 C   0  0  0  0  0  0  0  0  0  0  0  0
   18.1270  -15.4500   -2.5700 C   0  0  0  0  0  0  0  0  0  0  0  0
   19.0030  -15.8990   -3.5300 C   0  0  0  0  0  0  0  0  0  0  0  0
   20.3330  -15.5460   -3.4500 C   0  0  0  0  0  0  0  0  0  0  0  0
   20.7790  -14.7500   -2.4040 C   0  0  0  0  0  0  0  0  0  0  0  0
  1 18  1  0  0  0  0
  2  1  1  0  0  0  0
  2  3  1  0  0  0  0
  3 10  1  0  0  0  0
  4  3  1  0  0  0  0
  5  6  1  0  0  0  0
  5  4  1  0  0  0  0
  6  7  1  0  0  0  0
  6  9  1  0  0  0  0
  8  6  1  0  0  0  0
 10  9  1  0  0  0  0
 11  2  2  0  0  0  0
 12 11  2  0  0  0  0
 12 17  1  0  0  0  0
 13 12  1  0  0  0  0
 14 13  2  0  0  0  0
 14 15  1  0  0  0  0
 15 16  1  0  0  0  0
 17 16  2  0  0  0  0
 17  1  1  0  0  0  0
 19 18  1  0  0  0  0
 20 19  1  0  0  0  0
 21 20  2  0  0  0  0
 22 23  2  0  0  0  0
 22 21  1  0  0  0  0
 23 24  1  0  0  0  0
 24 19  2  0  0  0  0
M  END
>  <minimizedAffinity>
-7.59605837

$$$$

 OpenBabel12271915443D

 24 27  0  0  0  0  0  0  0  0999 V2000
   20.3840  -12.5910   -1.4750 N   0  0  0  0  0  0  0  0  0  0  0  0
   20.0120  -11.4820   -2.1870 C   0  0  0  0  0  0  0  0  0  0  0  0
   20.3530  -10.1530   -1.9950 N   0  0  0  0  0  0  0  0  0  0  0  0
   19.8740   -9.1920   -3.0110 C   0  0  0  0  0  0  0  0  0  0  0  0
   20.9910   -8.1960   -3.3960 C   0  0  0  0  0  0  0  0  0  0  0  0
   21.6580   -7.6160   -2.1960 N   0  0  0  0  0  0  0  0  0  0  0  0
   21.7340   -6.5930   -2.2860 H   0  0  0  0  0  0  0  0  0  0  0  0
   22.6040   -8.0230   -2.1500 H   0  0  0  0  0  0  0  0  0  0  0  0
   20.9570   -8.0050   -0.9310 C   0  0  0  0  0  0  0  0  0  0  0  0
   20.9870   -9.5610   -0.8320 C   0  0  0  0  0  0  0  0  0  0  0  0
   19.2280  -11.8560   -3.1770 N   0  0  0  0  0  0  0  0  0  0  0  0
   19.0630  -13.1980   -3.1310 C   0  0  0  0  0  0  0  0  0  0  0  0
   18.3270  -14.0400   -3.9550 C   0  0  0  0  0  0  0  0  0  0  0  0
   18.3000  -15.3960   -3.6860 C   0  0  0  0  0  0  0  0  0  0  0  0
   19.0070  -15.8990   -2.6000 C   0  0  0  0  0  0  0  0  0  0  0  0
   19.7490  -15.0510   -1.7750 C   0  0  0  0  0  0  0  0  0  0  0  0
   19.7670  -13.6880   -2.0610 C   0  0  0  0  0  0  0  0  0  0  0  0
   21.1690  -12.7310   -0.2650 C   0  0  0  0  0  0  0  0  0  0  0  0
   22.6460  -12.9330   -0.4750 C   0  0  0  0  0  0  0  0  0  0  0  0
   23.5220  -11.9330   -0.0830 C   0  0  0  0  0  0  0  0  0  0  0  0
   24.9100  -12.1110   -0.1590 C   0  0  0  0  0  0  0  0  0  0  0  0
   25.4310  -13.3010   -0.6070 C   0  0  0  0  0  0  0  0  0  0  0  0
   24.5770  -14.3140   -0.9860 C   0  0  0  0  0  0  0  0  0  0  0  0
   23.2040  -14.1260   -0.9200 C   0  0  0  0  0  0  0  0  0  0  0  0
  1 18  1  0  0  0  0
  2  3  1  0  0  0  0
  2  1  1  0  0  0  0
  3 10  1  0  0  0  0
  4  3  1  0  0  0  0
  5  4  1  0  0  0  0
  5  6  1  0  0  0  0
  6  8  1  0  0  0  0
  6  9  1  0  0  0  0
  7  6  1  0  0  0  0
  9 10  1  0  0  0  0
 11 12  2  0  0  0  0
 11  2  2  0  0  0  0
 12 17  1  0  0  0  0
 13 14  2  0  0  0  0
 13 12  1  0  0  0  0
 14 15  1  0  0  0  0
 15 16  1  0  0  0  0
 17 16  2  0  0  0  0
 17  1  1  0  0  0  0
 19 18  1  0  0  0  0
 19 20  2  0  0  0  0
 21 20  1  0  0  0  0
 22 21  2  0  0  0  0
 23 24  2  0  0  0  0
 23 22  1  0  0  0  0
 24 19  1  0  0  0  0
M  END
>  <minimizedAffinity>
-7.4755969

$$$$

 OpenBabel12271915443D

 24 27  0  0  0  0  0  0  0  0999 V2000
   21.5270  -12.1530   -0.9070 N   0  0  0  0  0  0  0  0  0  0  0  0
   21.3290  -11.0310   -1.6670 C   0  0  0  0  0  0  0  0  0  0  0  0
   20.1450  -10.4330   -2.0690 N   0  0  0  0  0  0  0  0  0  0  0  0
   20.2640   -9.1530   -2.7990 C   0  0  0  0  0  0  0  0  0  0  0  0
   19.2290   -8.1280   -2.2830 C   0  0  0  0  0  0  0  0  0  0  0  0
   17.8620   -8.7150   -2.1900 N   0  0  0  0  0  0  0  0  0  0  0  0
   17.1700   -8.0860   -2.6210 H   0  0  0  0  0  0  0  0  0  0  0  0
   17.6460   -8.8200   -1.1870 H   0  0  0  0  0  0  0  0  0  0  0  0
   17.8070  -10.0870   -2.7900 C   0  0  0  0  0  0  0  0  0  0  0  0
   18.8070  -10.9890   -2.0040 C   0  0  0  0  0  0  0  0  0  0  0  0
   22.5010  -10.5290   -1.9950 N   0  0  0  0  0  0  0  0  0  0  0  0
   23.4790  -11.3030   -1.4740 C   0  0  0  0  0  0  0  0  0  0  0  0
   24.8600  -11.1790   -1.5530 C   0  0  0  0  0  0  0  0  0  0  0  0
   25.6620  -12.1260   -0.9420 C   0  0  0  0  0  0  0  0  0  0  0  0
   25.0790  -13.1860   -0.2570 C   0  0  0  0  0  0  0  0  0  0  0  0
   23.6900  -13.3070   -0.1750 C   0  0  0  0  0  0  0  0  0  0  0  0
   22.8970  -12.3430   -0.7950 C   0  0  0  0  0  0  0  0  0  0  0  0
   20.5900  -13.1110   -0.3550 C   0  0  0  0  0  0  0  0  0  0  0  0
   20.0660  -14.1330   -1.3280 C   0  0  0  0  0  0  0  0  0  0  0  0
   18.7040  -14.3880   -1.3630 C   0  0  0  0  0  0  0  0  0  0  0  0
   18.1500  -15.2500   -2.3180 C   0  0  0  0  0  0  0  0  0  0  0  0
   18.9530  -15.8470   -3.2600 C   0  0  0  0  0  0  0  0  0  0  0  0
   20.3080  -15.5940   -3.2520 C   0  0  0  0  0  0  0  0  0  0  0  0
   20.8510  -14.7480   -2.2960 C   0  0  0  0  0  0  0  0  0  0  0  0
  1 17  1  0  0  0  0
  1 18  1  0  0  0  0
  2  1  1  0  0  0  0
  3 10  1  0  0  0  0
  3  2  1  0  0  0  0
  4  5  1  0  0  0  0
  4  3  1  0  0  0  0
  5  6  1  0  0  0  0
  6  8  1  0  0  0  0
  7  6  1  0  0  0  0
  9  6  1  0  0  0  0
  9 10  1  0  0  0  0
 11  2  2  0  0  0  0
 11 12  2  0  0  0  0
 12 17  1  0  0  0  0
 13 12  1  0  0  0  0
 13 14  2  0  0  0  0
 14 15  1  0  0  0  0
 15 16  1  0  0  0  0
 17 16  2  0  0  0  0
 19 18  1  0  0  0  0
 20 19  1  0  0  0  0
 21 20  2  0  0  0  0
 22 23  2  0  0  0  0
 22 21  1  0  0  0  0
 23 24  1  0  0  0  0
 24 19  2  0  0  0  0
M  END
>  <minimizedAffinity>
-7.46926117

$$$$

 OpenBabel12271915443D

 24 27  0  0  0  0  0  0  0  0999 V2000
   23.3060  -11.8950   -2.2000 N   0  0  0  0  0  0  0  0  0  0  0  0
   23.2560  -10.6410   -2.7490 C   0  0  0  0  0  0  0  0  0  0  0  0
   22.3300  -10.0960   -3.6230 N   0  0  0  0  0  0  0  0  0  0  0  0
   22.4900   -8.6630   -3.9490 C   0  0  0  0  0  0  0  0  0  0  0  0
   21.1270   -7.9350   -3.9160 C   0  0  0  0  0  0  0  0  0  0  0  0
   20.0810   -8.6770   -4.6770 N   0  0  0  0  0  0  0  0  0  0  0  0
   19.5720   -8.0380   -5.3040 H   0  0  0  0  0  0  0  0  0  0  0  0
   19.4250   -9.0680   -3.9850 H   0  0  0  0  0  0  0  0  0  0  0  0
   20.6610   -9.8360   -5.4270 C   0  0  0  0  0  0  0  0  0  0  0  0
   21.3140  -10.7960   -4.3860 C   0  0  0  0  0  0  0  0  0  0  0  0
   24.2770   -9.9410   -2.3010 N   0  0  0  0  0  0  0  0  0  0  0  0
   25.0150  -10.7110   -1.4690 C   0  0  0  0  0  0  0  0  0  0  0  0
   26.1750  -10.4160   -0.7650 C   0  0  0  0  0  0  0  0  0  0  0  0
   26.7610  -11.3940    0.0160 C   0  0  0  0  0  0  0  0  0  0  0  0
   26.1830  -12.6570    0.0900 C   0  0  0  0  0  0  0  0  0  0  0  0
   25.0150  -12.9510   -0.6150 C   0  0  0  0  0  0  0  0  0  0  0  0
   24.4360  -11.9530   -1.3970 C   0  0  0  0  0  0  0  0  0  0  0  0
   22.4770  -13.0650   -2.4110 C   0  0  0  0  0  0  0  0  0  0  0  0
   21.4370  -13.3170   -1.3520 C   0  0  0  0  0  0  0  0  0  0  0  0
   20.1780  -12.7580   -1.5030 C   0  0  0  0  0  0  0  0  0  0  0  0
   19.1430  -13.0460   -0.6030 C   0  0  0  0  0  0  0  0  0  0  0  0
   19.3550  -13.9130    0.4410 C   0  0  0  0  0  0  0  0  0  0  0  0
   20.5950  -14.4920    0.5990 C   0  0  0  0  0  0  0  0  0  0  0  0
   21.6190  -14.1940   -0.2890 C   0  0  0  0  0  0  0  0  0  0  0  0
  1 17  1  0  0  0  0
  2 11  2  0  0  0  0
  2  1  1  0  0  0  0
  3  2  1  0  0  0  0
  4  5  1  0  0  0  0
  4  3  1  0  0  0  0
  6  8  1  0  0  0  0
  6  5  1  0  0  0  0
  7  6  1  0  0  0  0
  9  6  1  0  0  0  0
  9 10  1  0  0  0  0
 10  3  1  0  0  0  0
 11 12  2  0  0  0  0
 12 17  1  0  0  0  0
 12 13  1  0  0  0  0
 13 14  2  0  0  0  0
 14 15  1  0  0  0  0
 16 15  1  0  0  0  0
 17 16  2  0  0  0  0
 18  1  1  0  0  0  0
 18 19  1  0  0  0  0
 19 24  1  0  0  0  0
 20 19  2  0  0  0  0
 20 21  1  0  0  0  0
 21 22  2  0  0  0  0
 22 23  1  0  0  0  0
 24 23  2  0  0  0  0
M  END
>  <minimizedAffinity>
-7.36682034

$$$$

 OpenBabel12271915443D

 24 27  0  0  0  0  0  0  0  0999 V2000
   22.3410  -11.7330   -0.9060 N   0  0  0  0  0  0  0  0  0  0  0  0
   21.9790  -13.0520   -0.8490 C   0  0  0  0  0  0  0  0  0  0  0  0
   20.7410  -13.6390   -1.0590 N   0  0  0  0  0  0  0  0  0  0  0  0
   20.6950  -15.1160   -1.0340 C   0  0  0  0  0  0  0  0  0  0  0  0
   19.8320  -15.6590   -2.1950 C   0  0  0  0  0  0  0  0  0  0  0  0
   18.5210  -14.9560   -2.2900 N   0  0  0  0  0  0  0  0  0  0  0  0
   17.7540  -15.6360   -2.3810 H   0  0  0  0  0  0  0  0  0  0  0  0
   18.5550  -14.3680   -3.1360 H   0  0  0  0  0  0  0  0  0  0  0  0
   18.3030  -14.0340   -1.1300 C   0  0  0  0  0  0  0  0  0  0  0  0
   19.4520  -12.9790   -1.1390 C   0  0  0  0  0  0  0  0  0  0  0  0
   23.0420  -13.7710   -0.5560 N   0  0  0  0  0  0  0  0  0  0  0  0
   24.1070  -12.9510   -0.4080 C   0  0  0  0  0  0  0  0  0  0  0  0
   25.4290  -13.2440   -0.0970 C   0  0  0  0  0  0  0  0  0  0  0  0
   26.3420  -12.2130    0.0200 C   0  0  0  0  0  0  0  0  0  0  0  0
   25.9290  -10.9000   -0.1760 C   0  0  0  0  0  0  0  0  0  0  0  0
   24.6010  -10.6070   -0.4920 C   0  0  0  0  0  0  0  0  0  0  0  0
   23.6940  -11.6590   -0.6080 C   0  0  0  0  0  0  0  0  0  0  0  0
   21.5540  -10.5340   -1.1160 C   0  0  0  0  0  0  0  0  0  0  0  0
   21.4720  -10.0570   -2.5420 C   0  0  0  0  0  0  0  0  0  0  0  0
   22.2010   -8.9400   -2.9180 C   0  0  0  0  0  0  0  0  0  0  0  0
   22.2450   -8.5160   -4.2520 C   0  0  0  0  0  0  0  0  0  0  0  0
   21.5760   -9.2210   -5.2250 C   0  0  0  0  0  0  0  0  0  0  0  0
   20.8590  -10.3440   -4.8740 C   0  0  0  0  0  0  0  0  0  0  0  0
   20.8110  -10.7520   -3.5480 C   0  0  0  0  0  0  0  0  0  0  0  0
  1  2  1  0  0  0  0
  1 17  1  0  0  0  0
  2 11  2  0  0  0  0
  3  4  1  0  0  0  0
  3  2  1  0  0  0  0
  5  4  1  0  0  0  0
  6  5  1  0  0  0  0
  6  9  1  0  0  0  0
  7  6  1  0  0  0  0
  8  6  1  0  0  0  0
 10  9  1  0  0  0  0
 10  3  1  0  0  0  0
 11 12  2  0  0  0  0
 12 13  1  0  0  0  0
 13 14  2  0  0  0  0
 15 14  1  0  0  0  0
 16 15  1  0  0  0  0
 17 16  2  0  0  0  0
 17 12  1  0  0  0  0
 18  1  1  0  0  0  0
 19 18  1  0  0  0  0
 20 19  1  0  0  0  0
 21 20  2  0  0  0  0
 22 23  2  0  0  0  0
 22 21  1  0  0  0  0
 23 24  1  0  0  0  0
 24 19  2  0  0  0  0
M  END
>  <minimizedAffinity>
-7.19477701

$$$$

 OpenBabel12271915443D

 24 27  0  0  0  0  0  0  0  0999 V2000
   21.6430  -12.5140   -1.3000 N   0  0  0  0  0  0  0  0  0  0  0  0
   21.2040  -13.7960   -1.4930 C   0  0  0  0  0  0  0  0  0  0  0  0
   19.9470  -14.2550   -1.8540 N   0  0  0  0  0  0  0  0  0  0  0  0
   19.8150  -15.7070   -2.0940 C   0  0  0  0  0  0  0  0  0  0  0  0
   18.9830  -15.9810   -3.3670 C   0  0  0  0  0  0  0  0  0  0  0  0
   17.7220  -15.1870   -3.3900 N   0  0  0  0  0  0  0  0  0  0  0  0
   16.9220  -15.7900   -3.6320 H   0  0  0  0  0  0  0  0  0  0  0  0
   17.8330  -14.4640   -4.1160 H   0  0  0  0  0  0  0  0  0  0  0  0
   17.4970  -14.4700   -2.0940 C   0  0  0  0  0  0  0  0  0  0  0  0
   18.7030  -13.5080   -1.8690 C   0  0  0  0  0  0  0  0  0  0  0  0
   22.2070  -14.6240   -1.2900 N   0  0  0  0  0  0  0  0  0  0  0  0
   23.3080  -13.9140   -0.9550 C   0  0  0  0  0  0  0  0  0  0  0  0
   24.5930  -14.3430   -0.6470 C   0  0  0  0  0  0  0  0  0  0  0  0
   25.5570  -13.4100   -0.3110 C   0  0  0  0  0  0  0  0  0  0  0  0
   25.2310  -12.0590   -0.2870 C   0  0  0  0  0  0  0  0  0  0  0  0
   23.9400  -11.6290   -0.6000 C   0  0  0  0  0  0  0  0  0  0  0  0
   22.9810  -12.5820   -0.9380 C   0  0  0  0  0  0  0  0  0  0  0  0
   20.9380  -11.2480   -1.3260 C   0  0  0  0  0  0  0  0  0  0  0  0
   20.9890  -10.5080   -2.6360 C   0  0  0  0  0  0  0  0  0  0  0  0
   21.5750   -9.2530   -2.6750 C   0  0  0  0  0  0  0  0  0  0  0  0
   21.7430   -8.5660   -3.8850 C   0  0  0  0  0  0  0  0  0  0  0  0
   21.3450   -9.1410   -5.0680 C   0  0  0  0  0  0  0  0  0  0  0  0
   20.7740  -10.3960   -5.0520 C   0  0  0  0  0  0  0  0  0  0  0  0
   20.6000  -11.0650   -3.8490 C   0  0  0  0  0  0  0  0  0  0  0  0
  1 17  1  0  0  0  0
  2  1  1  0  0  0  0
  2 11  2  0  0  0  0
  3  2  1  0  0  0  0
  4  3  1  0  0  0  0
  5  4  1  0  0  0  0
  6  5  1  0  0  0  0
  6  9  1  0  0  0  0
  7  6  1  0  0  0  0
  8  6  1  0  0  0  0
  9 10  1  0  0  0  0
 10  3  1  0  0  0  0
 11 12  2  0  0  0  0
 12 17  1  0  0  0  0
 12 13  1  0  0  0  0
 13 14  2  0  0  0  0
 14 15  1  0  0  0  0
 16 15  1  0  0  0  0
 17 16  2  0  0  0  0
 18  1  1  0  0  0  0
 19 18  1  0  0  0  0
 20 19  1  0  0  0  0
 21 20  2  0  0  0  0
 22 23  2  0  0  0  0
 22 21  1  0  0  0  0
 23 24  1  0  0  0  0
 24 19  2  0  0  0  0
M  END
>  <minimizedAffinity>
-7.14809036

$$$$

 OpenBabel12271915443D

 24 27  0  0  0  0  0  0  0  0999 V2000
   20.4130  -12.4960   -2.1020 N   0  0  0  0  0  0  0  0  0  0  0  0
   21.6520  -13.0280   -1.8630 C   0  0  0  0  0  0  0  0  0  0  0  0
   22.8240  -12.3990   -1.4780 N   0  0  0  0  0  0  0  0  0  0  0  0
   23.9820  -13.2720   -1.1890 C   0  0  0  0  0  0  0  0  0  0  0  0
   24.7050  -12.8170    0.0990 C   0  0  0  0  0  0  0  0  0  0  0  0
   24.9640  -11.3490    0.1030 N   0  0  0  0  0  0  0  0  0  0  0  0
   25.9400  -11.1570    0.3710 H   0  0  0  0  0  0  0  0  0  0  0  0
   24.3320  -10.9330    0.8030 H   0  0  0  0  0  0  0  0  0  0  0  0
   24.6230  -10.7240   -1.2140 C   0  0  0  0  0  0  0  0  0  0  0  0
   23.1070  -10.9760   -1.4810 C   0  0  0  0  0  0  0  0  0  0  0  0
   21.5960  -14.3310   -2.0450 N   0  0  0  0  0  0  0  0  0  0  0  0
   20.3410  -14.6760   -2.4120 C   0  0  0  0  0  0  0  0  0  0  0  0
   19.8050  -15.9220   -2.7140 C   0  0  0  0  0  0  0  0  0  0  0  0
   18.4770  -16.0150   -3.0870 C   0  0  0  0  0  0  0  0  0  0  0  0
   17.6970  -14.8670   -3.1550 C   0  0  0  0  0  0  0  0  0  0  0  0
   18.2360  -13.6160   -2.8480 C   0  0  0  0  0  0  0  0  0  0  0  0
   19.5750  -13.5400   -2.4710 C   0  0  0  0  0  0  0  0  0  0  0  0
   19.9480  -11.1230   -2.1150 C   0  0  0  0  0  0  0  0  0  0  0  0
   19.8750  -10.4800   -3.4750 C   0  0  0  0  0  0  0  0  0  0  0  0
   18.8300   -9.6140   -3.7500 C   0  0  0  0  0  0  0  0  0  0  0  0
   18.7700   -8.9080   -4.9590 C   0  0  0  0  0  0  0  0  0  0  0  0
   19.7690   -9.0490   -5.8920 C   0  0  0  0  0  0  0  0  0  0  0  0
   20.8260   -9.8930   -5.6300 C   0  0  0  0  0  0  0  0  0  0  0  0
   20.8720  -10.5980   -4.4360 C   0  0  0  0  0  0  0  0  0  0  0  0
  1  2  1  0  0  0  0
  2  3  1  0  0  0  0
  3  4  1  0  0  0  0
  4  5  1  0  0  0  0
  5  6  1  0  0  0  0
  6  7  1  0  0  0  0
  6  8  1  0  0  0  0
  9  6  1  0  0  0  0
 10  3  1  0  0  0  0
 10  9  1  0  0  0  0
 11  2  2  0  0  0  0
 12 11  2  0  0  0  0
 13 12  1  0  0  0  0
 14 13  2  0  0  0  0
 15 14  1  0  0  0  0
 15 16  1  0  0  0  0
 16 17  2  0  0  0  0
 17 12  1  0  0  0  0
 17  1  1  0  0  0  0
 18  1  1  0  0  0  0
 19 18  1  0  0  0  0
 20 19  1  0  0  0  0
 21 20  2  0  0  0  0
 22 23  2  0  0  0  0
 22 21  1  0  0  0  0
 23 24  1  0  0  0  0
 24 19  2  0  0  0  0
M  END
>  <minimizedAffinity>
-7.11391544

$$$$
