
 OpenBabel12271915523D

 32 35  0  0  1  0  0  0  0  0999 V2000
   22.7320  -13.6900   -0.6980 C   0  0  0  0  0  0  0  0  0  0  0  0
   21.3810  -13.8300   -1.0340 C   0  0  0  0  0  0  0  0  0  0  0  0
   20.9740  -14.7780   -1.9840 C   0  0  0  0  0  0  0  0  0  0  0  0
   21.9900  -15.5600   -2.5350 C   0  0  0  0  0  0  0  0  0  0  0  0
   23.2940  -15.4440   -2.2000 N   0  0  0  0  0  0  0  0  0  0  0  0
   23.6630  -14.5220   -1.2960 C   0  0  0  0  0  0  0  0  0  0  0  0
   19.5650  -14.9320   -2.3410 C   0  0  0  0  0  0  0  0  0  0  0  0
   18.5590  -14.0840   -1.8810 C   0  0  0  0  0  0  0  0  0  0  0  0
   17.1990  -14.2590   -2.2240 C   0  0  0  0  0  0  0  0  0  0  0  0
   16.8590  -15.3100   -3.0680 C   0  0  0  0  0  0  0  0  0  0  0  0
   15.6790  -15.7350   -3.5780 N   0  0  0  0  0  0  0  0  0  0  0  0
   14.7490  -15.3510   -3.4420 H   0  0  0  0  0  0  0  0  0  0  0  0
   15.8600  -16.8130   -4.3600 N   0  0  0  0  0  0  0  0  0  0  0  0
   17.1640  -17.0740   -4.3630 C   0  0  0  0  0  0  0  0  0  0  0  0
   17.7600  -18.2040   -5.1210 C   0  0  0  0  0  0  0  0  0  0  0  0
   17.8350  -16.1660   -3.5560 C   0  0  0  0  0  0  0  0  0  0  0  0
   19.1680  -15.9820   -3.1860 C   0  0  0  0  0  0  0  0  0  0  0  0
   22.9910  -12.7050    0.2150 O   0  0  0  0  0  0  0  0  0  0  0  0
   24.1380  -11.8870   -0.0290 C   0  0  0  0  0  0  0  0  0  0  0  0
   23.7220  -10.4600   -0.4270 C   0  0  1  0  0  0  0  0  0  0  0  0
   24.8540   -9.5100   -0.2020 N   0  0  0  0  0  0  0  0  0  0  0  0
   25.6070   -9.6750   -0.8920 H   0  0  0  0  0  0  0  0  0  0  0  0
   24.5460   -8.5370   -0.3120 H   0  0  0  0  0  0  0  0  0  0  0  0
   25.2410   -9.5980    0.7540 H   0  0  0  0  0  0  0  0  0  0  0  0
   23.2850  -10.3150   -1.8880 C   0  0  0  0  0  0  0  0  0  0  0  0
   21.7940  -10.3270   -2.0320 C   0  0  0  0  0  0  0  0  0  0  0  0
   21.1920  -10.8000   -3.1970 C   0  0  0  0  0  0  0  0  0  0  0  0
   19.8050  -10.8480   -3.2880 C   0  0  0  0  0  0  0  0  0  0  0  0
   19.0070  -10.4150   -2.2380 C   0  0  0  0  0  0  0  0  0  0  0  0
   17.1090  -10.4520   -2.3910 Br  0  0  0  0  0  0  0  0  0  0  0  0
   19.6030   -9.9400   -1.0830 C   0  0  0  0  0  0  0  0  0  0  0  0
   20.9940   -9.8920   -0.9720 C   0  0  0  0  0  0  0  0  0  0  0  0
  1 18  1  0  0  0  0
  2  1  1  0  0  0  0
  3  2  2  0  0  0  0
  4  5  2  0  0  0  0
  4  3  1  0  0  0  0
  5  6  1  0  0  0  0
  6  1  2  0  0  0  0
  7  3  1  0  0  0  0
  7  8  2  0  0  0  0
  9  8  1  0  0  0  0
 10  9  2  0  0  0  0
 11 12  1  0  0  0  0
 11 10  1  0  0  0  0
 13 11  1  0  0  0  0
 14 13  2  0  0  0  0
 14 16  1  0  0  0  0
 15 14  1  0  0  0  0
 16 17  2  0  0  0  0
 16 10  1  0  0  0  0
 17  7  1  0  0  0  0
 19 18  1  0  0  0  0
 20 25  1  6  0  0  0
 20 21  1  0  0  0  0
 20 19  1  0  0  0  0
 21 24  1  0  0  0  0
 22 21  1  0  0  0  0
 23 21  1  0  0  0  0
 26 25  1  0  0  0  0
 26 32  2  0  0  0  0
 27 26  1  0  0  0  0
 28 27  2  0  0  0  0
 28 29  1  0  0  0  0
 29 31  2  0  0  0  0
 30 29  1  0  0  0  0
 31 32  1  0  0  0  0
M  END
>  <minimizedAffinity>
-8.63958359

$$$$

 OpenBabel12271915523D

 32 35  0  0  1  0  0  0  0  0999 V2000
   22.3750  -13.2370   -0.7210 C   0  0  0  0  0  0  0  0  0  0  0  0
   21.0550  -13.4610   -1.1260 C   0  0  0  0  0  0  0  0  0  0  0  0
   20.7240  -14.5820   -1.9010 C   0  0  0  0  0  0  0  0  0  0  0  0
   21.7800  -15.4400   -2.2090 C   0  0  0  0  0  0  0  0  0  0  0  0
   23.0540  -15.2420   -1.8040 N   0  0  0  0  0  0  0  0  0  0  0  0
   23.3500  -14.1560   -1.0710 C   0  0  0  0  0  0  0  0  0  0  0  0
   19.3480  -14.8250   -2.3280 C   0  0  0  0  0  0  0  0  0  0  0  0
   18.2690  -14.0370   -1.9300 C   0  0  0  0  0  0  0  0  0  0  0  0
   16.9420  -14.2970   -2.3410 C   0  0  0  0  0  0  0  0  0  0  0  0
   16.7110  -15.3730   -3.1900 C   0  0  0  0  0  0  0  0  0  0  0  0
   15.5870  -15.8740   -3.7550 N   0  0  0  0  0  0  0  0  0  0  0  0
   14.6300  -15.5460   -3.6710 H   0  0  0  0  0  0  0  0  0  0  0  0
   15.8730  -16.9450   -4.5140 N   0  0  0  0  0  0  0  0  0  0  0  0
   17.1890  -17.1260   -4.4470 C   0  0  0  0  0  0  0  0  0  0  0  0
   17.8920  -18.2240   -5.1610 C   0  0  0  0  0  0  0  0  0  0  0  0
   17.7610  -16.1720   -3.6170 C   0  0  0  0  0  0  0  0  0  0  0  0
   19.0600  -15.9040   -3.1810 C   0  0  0  0  0  0  0  0  0  0  0  0
   22.5620  -12.0900   -0.0010 O   0  0  0  0  0  0  0  0  0  0  0  0
   22.3750  -10.8550   -0.6980 C   0  0  0  0  0  0  0  0  0  0  0  0
   23.6260  -10.4900   -1.5160 C   0  0  1  0  0  0  0  0  0  0  0  0
   23.2300   -9.9620   -2.8570 N   0  0  0  0  0  0  0  0  0  0  0  0
   22.7980   -9.0270   -2.7650 H   0  0  0  0  0  0  0  0  0  0  0  0
   24.0480   -9.8620   -3.4700 H   0  0  0  0  0  0  0  0  0  0  0  0
   22.5690  -10.5980   -3.3370 H   0  0  0  0  0  0  0  0  0  0  0  0
   24.5250   -9.4400   -0.8560 C   0  0  0  0  0  0  0  0  0  0  0  0
   25.8370  -10.0150   -0.4230 C   0  0  0  0  0  0  0  0  0  0  0  0
   26.9080   -9.1870   -0.0910 C   0  0  0  0  0  0  0  0  0  0  0  0
   28.1000   -9.7430    0.3580 C   0  0  0  0  0  0  0  0  0  0  0  0
   28.2480  -11.1200    0.4650 C   0  0  0  0  0  0  0  0  0  0  0  0
   29.9000  -11.8700    1.0460 Br  0  0  0  0  0  0  0  0  0  0  0  0
   27.1880  -11.9440    0.1300 C   0  0  0  0  0  0  0  0  0  0  0  0
   25.9820  -11.4020   -0.3140 C   0  0  0  0  0  0  0  0  0  0  0  0
  1 18  1  0  0  0  0
  2  1  2  0  0  0  0
  3  2  1  0  0  0  0
  4  3  2  0  0  0  0
  4  5  1  0  0  0  0
  5  6  2  0  0  0  0
  6  1  1  0  0  0  0
  7  8  1  0  0  0  0
  7  3  1  0  0  0  0
  9  8  2  0  0  0  0
 10  9  1  0  0  0  0
 11 12  1  0  0  0  0
 11 10  1  0  0  0  0
 13 14  2  0  0  0  0
 13 11  1  0  0  0  0
 14 16  1  0  0  0  0
 15 14  1  0  0  0  0
 16 10  2  0  0  0  0
 16 17  1  0  0  0  0
 17  7  2  0  0  0  0
 19 18  1  0  0  0  0
 20 25  1  1  0  0  0
 20 19  1  0  0  0  0
 21 22  1  0  0  0  0
 21 20  1  0  0  0  0
 23 21  1  0  0  0  0
 24 21  1  0  0  0  0
 25 26  1  0  0  0  0
 26 32  2  0  0  0  0
 26 27  1  0  0  0  0
 27 28  2  0  0  0  0
 28 29  1  0  0  0  0
 29 30  1  0  0  0  0
 31 29  2  0  0  0  0
 32 31  1  0  0  0  0
M  END
>  <minimizedAffinity>
-8.4753685

$$$$

 OpenBabel12271915523D

 32 35  0  0  1  0  0  0  0  0999 V2000
   22.4350  -13.2790   -0.8050 C   0  0  0  0  0  0  0  0  0  0  0  0
   21.1110  -13.4560   -1.2200 C   0  0  0  0  0  0  0  0  0  0  0  0
   20.7140  -14.6380   -1.8620 C   0  0  0  0  0  0  0  0  0  0  0  0
   21.7090  -15.6020   -2.0280 C   0  0  0  0  0  0  0  0  0  0  0  0
   22.9850  -15.4460   -1.6110 N   0  0  0  0  0  0  0  0  0  0  0  0
   23.3460  -14.3010   -1.0090 C   0  0  0  0  0  0  0  0  0  0  0  0
   19.3330  -14.8340   -2.2990 C   0  0  0  0  0  0  0  0  0  0  0  0
   18.2850  -13.9920   -1.9300 C   0  0  0  0  0  0  0  0  0  0  0  0
   16.9520  -14.2060   -2.3510 C   0  0  0  0  0  0  0  0  0  0  0  0
   16.6850  -15.2900   -3.1780 C   0  0  0  0  0  0  0  0  0  0  0  0
   15.5460  -15.7560   -3.7450 N   0  0  0  0  0  0  0  0  0  0  0  0
   14.6030  -15.3870   -3.6790 H   0  0  0  0  0  0  0  0  0  0  0  0
   15.7960  -16.8550   -4.4770 N   0  0  0  0  0  0  0  0  0  0  0  0
   17.1030  -17.0890   -4.3910 C   0  0  0  0  0  0  0  0  0  0  0  0
   17.7660  -18.2310   -5.0730 C   0  0  0  0  0  0  0  0  0  0  0  0
   17.7050  -16.1410   -3.5760 C   0  0  0  0  0  0  0  0  0  0  0  0
   19.0090  -15.9180   -3.1310 C   0  0  0  0  0  0  0  0  0  0  0  0
   22.6910  -12.0670   -0.2260 O   0  0  0  0  0  0  0  0  0  0  0  0
   22.8480  -10.9520   -1.1080 C   0  0  0  0  0  0  0  0  0  0  0  0
   24.2470  -10.3300   -0.9650 C   0  0  1  0  0  0  0  0  0  0  0  0
   24.1850   -9.1080   -0.1060 N   0  0  0  0  0  0  0  0  0  0  0  0
   24.0040   -9.3670    0.8790 H   0  0  0  0  0  0  0  0  0  0  0  0
   25.0740   -8.5960   -0.1290 H   0  0  0  0  0  0  0  0  0  0  0  0
   23.4500   -8.4540   -0.4280 H   0  0  0  0  0  0  0  0  0  0  0  0
   25.2940  -11.2670   -0.3550 C   0  0  0  0  0  0  0  0  0  0  0  0
   26.6920  -10.8110   -0.6400 C   0  0  0  0  0  0  0  0  0  0  0  0
   27.6500  -10.7640    0.3710 C   0  0  0  0  0  0  0  0  0  0  0  0
   28.9540  -10.3860    0.0710 C   0  0  0  0  0  0  0  0  0  0  0  0
   29.3140  -10.0350   -1.2220 C   0  0  0  0  0  0  0  0  0  0  0  0
   31.0950   -9.4830   -1.6110 Br  0  0  0  0  0  0  0  0  0  0  0  0
   28.3630  -10.0750   -2.2260 C   0  0  0  0  0  0  0  0  0  0  0  0
   27.0520  -10.4600   -1.9450 C   0  0  0  0  0  0  0  0  0  0  0  0
  1 18  1  0  0  0  0
  2  1  2  0  0  0  0
  3  2  1  0  0  0  0
  4  3  2  0  0  0  0
  4  5  1  0  0  0  0
  5  6  2  0  0  0  0
  6  1  1  0  0  0  0
  7  8  1  0  0  0  0
  7  3  1  0  0  0  0
  9  8  2  0  0  0  0
 10  9  1  0  0  0  0
 11 12  1  0  0  0  0
 11 10  1  0  0  0  0
 13 14  2  0  0  0  0
 13 11  1  0  0  0  0
 14 16  1  0  0  0  0
 15 14  1  0  0  0  0
 16 10  2  0  0  0  0
 16 17  1  0  0  0  0
 17  7  2  0  0  0  0
 19 18  1  0  0  0  0
 20 19  1  1  0  0  0
 20 25  1  0  0  0  0
 20 21  1  0  0  0  0
 21 22  1  0  0  0  0
 23 21  1  0  0  0  0
 24 21  1  0  0  0  0
 26 25  1  0  0  0  0
 26 27  2  0  0  0  0
 28 27  1  0  0  0  0
 29 28  2  0  0  0  0
 30 29  1  0  0  0  0
 31 32  2  0  0  0  0
 31 29  1  0  0  0  0
 32 26  1  0  0  0  0
M  END
>  <minimizedAffinity>
-8.12983131

$$$$

 OpenBabel12271915523D

 32 35  0  0  1  0  0  0  0  0999 V2000
   18.5920  -11.0970   -2.3360 C   0  0  0  0  0  0  0  0  0  0  0  0
   19.9860  -11.1090   -2.2180 C   0  0  0  0  0  0  0  0  0  0  0  0
   20.6380  -10.2200   -1.3510 C   0  0  0  0  0  0  0  0  0  0  0  0
   19.8110   -9.3650   -0.6230 C   0  0  0  0  0  0  0  0  0  0  0  0
   18.4630   -9.3620   -0.7160 N   0  0  0  0  0  0  0  0  0  0  0  0
   17.8590  -10.2140   -1.5610 C   0  0  0  0  0  0  0  0  0  0  0  0
   22.0940  -10.2250   -1.2200 C   0  0  0  0  0  0  0  0  0  0  0  0
   22.7580   -9.9800   -0.0190 C   0  0  0  0  0  0  0  0  0  0  0  0
   24.1680   -9.9730    0.0850 C   0  0  0  0  0  0  0  0  0  0  0  0
   24.9170  -10.2390   -1.0550 C   0  0  0  0  0  0  0  0  0  0  0  0
   26.2500  -10.3110   -1.2840 N   0  0  0  0  0  0  0  0  0  0  0  0
   27.0170  -10.1800   -0.6320 H   0  0  0  0  0  0  0  0  0  0  0  0
   26.4950  -10.6030   -2.5720 N   0  0  0  0  0  0  0  0  0  0  0  0
   25.3150  -10.7320   -3.1720 C   0  0  0  0  0  0  0  0  0  0  0  0
   25.1720  -11.0570   -4.6150 C   0  0  0  0  0  0  0  0  0  0  0  0
   24.2900  -10.5010   -2.2650 C   0  0  0  0  0  0  0  0  0  0  0  0
   22.8970  -10.4830   -2.3440 C   0  0  0  0  0  0  0  0  0  0  0  0
   18.0910  -11.9910   -3.2410 O   0  0  0  0  0  0  0  0  0  0  0  0
   18.8030  -13.2220   -3.3920 C   0  0  0  0  0  0  0  0  0  0  0  0
   18.2440  -14.3000   -2.4480 C   0  0  1  0  0  0  0  0  0  0  0  0
   16.9620  -14.8470   -2.9890 N   0  0  0  0  0  0  0  0  0  0  0  0
   17.1410  -15.4220   -3.8300 H   0  0  0  0  0  0  0  0  0  0  0  0
   16.4980  -15.4500   -2.3000 H   0  0  0  0  0  0  0  0  0  0  0  0
   16.2960  -14.0910   -3.2270 H   0  0  0  0  0  0  0  0  0  0  0  0
   19.1860  -15.4850   -2.2160 C   0  0  0  0  0  0  0  0  0  0  0  0
   20.5580  -15.0420   -1.8120 C   0  0  0  0  0  0  0  0  0  0  0  0
   20.7620  -14.3280   -0.6320 C   0  0  0  0  0  0  0  0  0  0  0  0
   22.0510  -13.9710   -0.2530 C   0  0  0  0  0  0  0  0  0  0  0  0
   23.1430  -14.3020   -1.0440 C   0  0  0  0  0  0  0  0  0  0  0  0
   24.9000  -13.7740   -0.5310 Br  0  0  0  0  0  0  0  0  0  0  0  0
   22.9430  -15.0050   -2.2180 C   0  0  0  0  0  0  0  0  0  0  0  0
   21.6560  -15.3780   -2.6100 C   0  0  0  0  0  0  0  0  0  0  0  0
  1  2  2  0  0  0  0
  1  6  1  0  0  0  0
  2  3  1  0  0  0  0
  3  7  1  0  0  0  0
  3  4  2  0  0  0  0
  5  4  1  0  0  0  0
  6  5  2  0  0  0  0
  7  8  2  0  0  0  0
  8  9  1  0  0  0  0
 10  9  2  0  0  0  0
 11 10  1  0  0  0  0
 11 12  1  0  0  0  0
 13 11  1  0  0  0  0
 14 13  2  0  0  0  0
 14 16  1  0  0  0  0
 15 14  1  0  0  0  0
 16 10  1  0  0  0  0
 17 16  2  0  0  0  0
 17  7  1  0  0  0  0
 18  1  1  0  0  0  0
 19 18  1  0  0  0  0
 20 19  1  6  0  0  0
 20 25  1  0  0  0  0
 21 20  1  0  0  0  0
 21 23  1  0  0  0  0
 22 21  1  0  0  0  0
 24 21  1  0  0  0  0
 25 26  1  0  0  0  0
 26 27  2  0  0  0  0
 27 28  1  0  0  0  0
 29 30  1  0  0  0  0
 29 28  2  0  0  0  0
 31 29  1  0  0  0  0
 32 31  2  0  0  0  0
 32 26  1  0  0  0  0
M  END
>  <minimizedAffinity>
-7.77314758

$$$$

 OpenBabel12271915523D

 32 35  0  0  1  0  0  0  0  0999 V2000
   22.6850  -13.1380   -1.5010 C   0  0  0  0  0  0  0  0  0  0  0  0
   21.3610  -13.3180   -1.9150 C   0  0  0  0  0  0  0  0  0  0  0  0
   20.7730  -14.5910   -1.8990 C   0  0  0  0  0  0  0  0  0  0  0  0
   21.5820  -15.6280   -1.4340 C   0  0  0  0  0  0  0  0  0  0  0  0
   22.8550  -15.4580   -1.0130 N   0  0  0  0  0  0  0  0  0  0  0  0
   23.4020  -14.2320   -1.0460 C   0  0  0  0  0  0  0  0  0  0  0  0
   19.3900  -14.7900   -2.3290 C   0  0  0  0  0  0  0  0  0  0  0  0
   18.3450  -13.9410   -1.9670 C   0  0  0  0  0  0  0  0  0  0  0  0
   17.0100  -14.1590   -2.3800 C   0  0  0  0  0  0  0  0  0  0  0  0
   16.7380  -15.2530   -3.1920 C   0  0  0  0  0  0  0  0  0  0  0  0
   15.5970  -15.7240   -3.7490 N   0  0  0  0  0  0  0  0  0  0  0  0
   14.6540  -15.3530   -3.6840 H   0  0  0  0  0  0  0  0  0  0  0  0
   15.8410  -16.8330   -4.4670 N   0  0  0  0  0  0  0  0  0  0  0  0
   17.1480  -17.0690   -4.3830 C   0  0  0  0  0  0  0  0  0  0  0  0
   17.8060  -18.2200   -5.0530 C   0  0  0  0  0  0  0  0  0  0  0  0
   17.7550  -16.1110   -3.5830 C   0  0  0  0  0  0  0  0  0  0  0  0
   19.0610  -15.8840   -3.1460 C   0  0  0  0  0  0  0  0  0  0  0  0
   23.1410  -11.8530   -1.6000 O   0  0  0  0  0  0  0  0  0  0  0  0
   23.9800  -11.3840   -0.5410 C   0  0  0  0  0  0  0  0  0  0  0  0
   25.4080  -11.1170   -1.0460 C   0  0  1  0  0  0  0  0  0  0  0  0
   26.3920  -11.9310   -0.2700 N   0  0  0  0  0  0  0  0  0  0  0  0
   26.3030  -12.9330   -0.5110 H   0  0  0  0  0  0  0  0  0  0  0  0
   27.3560  -11.6500   -0.4860 H   0  0  0  0  0  0  0  0  0  0  0  0
   26.2640  -11.8120    0.7500 H   0  0  0  0  0  0  0  0  0  0  0  0
   25.6210  -11.4320   -2.5300 C   0  0  0  0  0  0  0  0  0  0  0  0
   25.6910  -10.1900   -3.3640 C   0  0  0  0  0  0  0  0  0  0  0  0
   24.7770   -9.9660   -4.3920 C   0  0  0  0  0  0  0  0  0  0  0  0
   24.8320   -8.7820   -5.1200 C   0  0  0  0  0  0  0  0  0  0  0  0
   25.7980   -7.8230   -4.8480 C   0  0  0  0  0  0  0  0  0  0  0  0
   25.8830   -6.2220   -5.8780 Br  0  0  0  0  0  0  0  0  0  0  0  0
   26.7090   -8.0470   -3.8320 C   0  0  0  0  0  0  0  0  0  0  0  0
   26.6640   -9.2250   -3.0860 C   0  0  0  0  0  0  0  0  0  0  0  0
  1  6  2  0  0  0  0
  2  3  2  0  0  0  0
  2  1  1  0  0  0  0
  3  4  1  0  0  0  0
  4  5  2  0  0  0  0
  6  5  1  0  0  0  0
  7  8  1  0  0  0  0
  7  3  1  0  0  0  0
  9  8  2  0  0  0  0
 10  9  1  0  0  0  0
 11 12  1  0  0  0  0
 11 10  1  0  0  0  0
 13 14  2  0  0  0  0
 13 11  1  0  0  0  0
 14 16  1  0  0  0  0
 15 14  1  0  0  0  0
 16 10  2  0  0  0  0
 16 17  1  0  0  0  0
 17  7  2  0  0  0  0
 18  1  1  0  0  0  0
 18 19  1  0  0  0  0
 20 25  1  6  0  0  0
 20 19  1  0  0  0  0
 20 21  1  0  0  0  0
 21 24  1  0  0  0  0
 22 21  1  0  0  0  0
 23 21  1  0  0  0  0
 26 32  1  0  0  0  0
 26 25  1  0  0  0  0
 27 26  2  0  0  0  0
 28 29  2  0  0  0  0
 28 27  1  0  0  0  0
 29 31  1  0  0  0  0
 30 29  1  0  0  0  0
 31 32  2  0  0  0  0
M  END
>  <minimizedAffinity>
-7.76514482

$$$$

 OpenBabel12271915523D

 32 35  0  0  1  0  0  0  0  0999 V2000
   22.4540  -12.7590   -1.8860 C   0  0  0  0  0  0  0  0  0  0  0  0
   21.1390  -13.0780   -2.2410 C   0  0  0  0  0  0  0  0  0  0  0  0
   20.6390  -14.3740   -2.0450 C   0  0  0  0  0  0  0  0  0  0  0  0
   21.5240  -15.2850   -1.4670 C   0  0  0  0  0  0  0  0  0  0  0  0
   22.7890  -14.9790   -1.1040 N   0  0  0  0  0  0  0  0  0  0  0  0
   23.2510  -13.7350   -1.3100 C   0  0  0  0  0  0  0  0  0  0  0  0
   19.2660  -14.7170   -2.4110 C   0  0  0  0  0  0  0  0  0  0  0  0
   18.1510  -14.0200   -1.9480 C   0  0  0  0  0  0  0  0  0  0  0  0
   16.8290  -14.3770   -2.3000 C   0  0  0  0  0  0  0  0  0  0  0  0
   16.6410  -15.4560   -3.1570 C   0  0  0  0  0  0  0  0  0  0  0  0
   15.5320  -16.0340   -3.6780 N   0  0  0  0  0  0  0  0  0  0  0  0
   14.5580  -15.7820   -3.5420 H   0  0  0  0  0  0  0  0  0  0  0  0
   15.8630  -17.0680   -4.4690 N   0  0  0  0  0  0  0  0  0  0  0  0
   17.1910  -17.1470   -4.4670 C   0  0  0  0  0  0  0  0  0  0  0  0
   17.9400  -18.1760   -5.2340 C   0  0  0  0  0  0  0  0  0  0  0  0
   17.7280  -16.1640   -3.6480 C   0  0  0  0  0  0  0  0  0  0  0  0
   19.0210  -15.8020   -3.2690 C   0  0  0  0  0  0  0  0  0  0  0  0
   22.8210  -11.4720   -2.1640 O   0  0  0  0  0  0  0  0  0  0  0  0
   22.9990  -11.1360   -3.5430 C   0  0  0  0  0  0  0  0  0  0  0  0
   22.0650   -9.9840   -3.9530 C   0  0  1  0  0  0  0  0  0  0  0  0
   22.8370   -8.9280   -4.6780 N   0  0  0  0  0  0  0  0  0  0  0  0
   23.1230   -9.2660   -5.6120 H   0  0  0  0  0  0  0  0  0  0  0  0
   22.2660   -8.0860   -4.8200 H   0  0  0  0  0  0  0  0  0  0  0  0
   23.6760   -8.6370   -4.1470 H   0  0  0  0  0  0  0  0  0  0  0  0
   20.9030  -10.4050   -4.8570 C   0  0  0  0  0  0  0  0  0  0  0  0
   19.5780   -9.9780   -4.3060 C   0  0  0  0  0  0  0  0  0  0  0  0
   18.9900  -10.6640   -3.2440 C   0  0  0  0  0  0  0  0  0  0  0  0
   17.7840  -10.2180   -2.7160 C   0  0  0  0  0  0  0  0  0  0  0  0
   17.1440   -9.1050   -3.2430 C   0  0  0  0  0  0  0  0  0  0  0  0
   15.4730   -8.5270   -2.5340 Br  0  0  0  0  0  0  0  0  0  0  0  0
   17.7230   -8.4260   -4.3010 C   0  0  0  0  0  0  0  0  0  0  0  0
   18.9370   -8.8550   -4.8380 C   0  0  0  0  0  0  0  0  0  0  0  0
  1  6  2  0  0  0  0
  2  3  2  0  0  0  0
  2  1  1  0  0  0  0
  3  4  1  0  0  0  0
  4  5  2  0  0  0  0
  6  5  1  0  0  0  0
  7  3  1  0  0  0  0
  7  8  2  0  0  0  0
  9  8  1  0  0  0  0
 10  9  2  0  0  0  0
 11 12  1  0  0  0  0
 11 10  1  0  0  0  0
 13 14  2  0  0  0  0
 13 11  1  0  0  0  0
 14 16  1  0  0  0  0
 15 14  1  0  0  0  0
 16 17  2  0  0  0  0
 16 10  1  0  0  0  0
 17  7  1  0  0  0  0
 18  1  1  0  0  0  0
 19 18  1  0  0  0  0
 20 25  1  6  0  0  0
 20 19  1  0  0  0  0
 21 24  1  0  0  0  0
 21 20  1  0  0  0  0
 22 21  1  0  0  0  0
 23 21  1  0  0  0  0
 25 26  1  0  0  0  0
 26 27  1  0  0  0  0
 27 28  2  0  0  0  0
 29 28  1  0  0  0  0
 29 30  1  0  0  0  0
 31 29  2  0  0  0  0
 32 26  2  0  0  0  0
 32 31  1  0  0  0  0
M  END
>  <minimizedAffinity>
-7.60451078

$$$$

 OpenBabel12271915523D

 32 35  0  0  1  0  0  0  0  0999 V2000
   18.2760  -12.4340   -1.1900 C   0  0  0  0  0  0  0  0  0  0  0  0
   19.6660  -12.4380   -1.0380 C   0  0  0  0  0  0  0  0  0  0  0  0
   20.4050  -13.6130   -1.2400 C   0  0  0  0  0  0  0  0  0  0  0  0
   19.6680  -14.7360   -1.6140 C   0  0  0  0  0  0  0  0  0  0  0  0
   18.3280  -14.7350   -1.7830 N   0  0  0  0  0  0  0  0  0  0  0  0
   17.6380  -13.6020   -1.5740 C   0  0  0  0  0  0  0  0  0  0  0  0
   21.8590  -13.6270   -1.0830 C   0  0  0  0  0  0  0  0  0  0  0  0
   22.6450  -14.7550   -1.3150 C   0  0  0  0  0  0  0  0  0  0  0  0
   24.0480  -14.7540   -1.1430 C   0  0  0  0  0  0  0  0  0  0  0  0
   24.6650  -13.5740   -0.7430 C   0  0  0  0  0  0  0  0  0  0  0  0
   25.9570  -13.2480   -0.5010 N   0  0  0  0  0  0  0  0  0  0  0  0
   26.7850  -13.8320   -0.5660 H   0  0  0  0  0  0  0  0  0  0  0  0
   26.0610  -11.9610   -0.1330 N   0  0  0  0  0  0  0  0  0  0  0  0
   24.8320  -11.4520   -0.1520 C   0  0  0  0  0  0  0  0  0  0  0  0
   24.5370  -10.0390    0.1990 C   0  0  0  0  0  0  0  0  0  0  0  0
   23.9170  -12.4290   -0.5170 C   0  0  0  0  0  0  0  0  0  0  0  0
   22.5300  -12.4620   -0.6760 C   0  0  0  0  0  0  0  0  0  0  0  0
   17.6790  -11.2320   -0.9290 O   0  0  0  0  0  0  0  0  0  0  0  0
   16.9460  -10.6310   -2.0000 C   0  0  0  0  0  0  0  0  0  0  0  0
   17.8970   -9.9800   -3.0200 C   0  0  1  0  0  0  0  0  0  0  0  0
   17.1200   -9.1570   -3.9980 N   0  0  0  0  0  0  0  0  0  0  0  0
   16.7440   -8.3100   -3.5390 H   0  0  0  0  0  0  0  0  0  0  0  0
   17.7170   -8.8460   -4.7730 H   0  0  0  0  0  0  0  0  0  0  0  0
   16.3410   -9.6960   -4.4140 H   0  0  0  0  0  0  0  0  0  0  0  0
   18.9610   -9.0710   -2.3990 C   0  0  0  0  0  0  0  0  0  0  0  0
   20.3460   -9.4610   -2.8140 C   0  0  0  0  0  0  0  0  0  0  0  0
   21.4620   -8.8240   -2.2730 C   0  0  0  0  0  0  0  0  0  0  0  0
   22.7380   -9.2390   -2.6360 C   0  0  0  0  0  0  0  0  0  0  0  0
   22.9200  -10.2710   -3.5470 C   0  0  0  0  0  0  0  0  0  0  0  0
   24.6750  -10.8040   -4.0630 Br  0  0  0  0  0  0  0  0  0  0  0  0
   21.8140  -10.9010   -4.0880 C   0  0  0  0  0  0  0  0  0  0  0  0
   20.5250  -10.5030   -3.7290 C   0  0  0  0  0  0  0  0  0  0  0  0
  1  2  1  0  0  0  0
  1 18  1  0  0  0  0
  3  7  1  0  0  0  0
  3  2  2  0  0  0  0
  4  3  1  0  0  0  0
  5  4  2  0  0  0  0
  5  6  1  0  0  0  0
  6  1  2  0  0  0  0
  7 17  2  0  0  0  0
  8  9  2  0  0  0  0
  8  7  1  0  0  0  0
  9 10  1  0  0  0  0
 10 16  2  0  0  0  0
 10 11  1  0  0  0  0
 11 13  1  0  0  0  0
 12 11  1  0  0  0  0
 14 13  2  0  0  0  0
 14 15  1  0  0  0  0
 16 14  1  0  0  0  0
 17 16  1  0  0  0  0
 19 18  1  0  0  0  0
 20 25  1  1  0  0  0
 20 19  1  0  0  0  0
 21 22  1  0  0  0  0
 21 20  1  0  0  0  0
 23 21  1  0  0  0  0
 24 21  1  0  0  0  0
 26 25  1  0  0  0  0
 26 27  2  0  0  0  0
 28 27  1  0  0  0  0
 29 28  2  0  0  0  0
 30 29  1  0  0  0  0
 31 32  2  0  0  0  0
 31 29  1  0  0  0  0
 32 26  1  0  0  0  0
M  END
>  <minimizedAffinity>
-7.47477579

$$$$

 OpenBabel12271915523D

 32 35  0  0  1  0  0  0  0  0999 V2000
   24.0750  -11.3690   -2.8830 C   0  0  0  0  0  0  0  0  0  0  0  0
   22.7250  -11.0220   -2.9950 C   0  0  0  0  0  0  0  0  0  0  0  0
   22.3010  -10.1020   -3.9650 C   0  0  0  0  0  0  0  0  0  0  0  0
   23.2980   -9.5930   -4.7970 C   0  0  0  0  0  0  0  0  0  0  0  0
   24.6010   -9.9400   -4.7080 N   0  0  0  0  0  0  0  0  0  0  0  0
   24.9880  -10.8150   -3.7650 C   0  0  0  0  0  0  0  0  0  0  0  0
   20.8920   -9.7330   -4.0910 C   0  0  0  0  0  0  0  0  0  0  0  0
   20.3560   -9.1230   -5.2240 C   0  0  0  0  0  0  0  0  0  0  0  0
   18.9940   -8.7580   -5.3210 C   0  0  0  0  0  0  0  0  0  0  0  0
   18.1560   -9.0370   -4.2470 C   0  0  0  0  0  0  0  0  0  0  0  0
   16.8360   -8.8260   -4.0320 N   0  0  0  0  0  0  0  0  0  0  0  0
   16.1490   -8.3990   -4.6460 H   0  0  0  0  0  0  0  0  0  0  0  0
   16.4740   -9.2760   -2.8190 N   0  0  0  0  0  0  0  0  0  0  0  0
   17.5650   -9.7910   -2.2560 C   0  0  0  0  0  0  0  0  0  0  0  0
   17.5660  -10.3930   -0.8980 C   0  0  0  0  0  0  0  0  0  0  0  0
   18.6510   -9.6540   -3.1080 C   0  0  0  0  0  0  0  0  0  0  0  0
   20.0050   -9.9860   -3.0310 C   0  0  0  0  0  0  0  0  0  0  0  0
   24.3530  -12.2490   -1.8740 O   0  0  0  0  0  0  0  0  0  0  0  0
   23.2390  -12.7470   -1.1280 C   0  0  0  0  0  0  0  0  0  0  0  0
   23.0580  -14.2580   -1.3520 C   0  0  1  0  0  0  0  0  0  0  0  0
   24.3430  -14.9760   -1.0940 N   0  0  0  0  0  0  0  0  0  0  0  0
   24.5640  -14.9710   -0.0840 H   0  0  0  0  0  0  0  0  0  0  0  0
   24.2830  -15.9580   -1.3890 H   0  0  0  0  0  0  0  0  0  0  0  0
   25.1290  -14.5510   -1.6180 H   0  0  0  0  0  0  0  0  0  0  0  0
   21.9860  -14.9020   -0.4680 C   0  0  0  0  0  0  0  0  0  0  0  0
   20.6330  -14.8660   -1.1070 C   0  0  0  0  0  0  0  0  0  0  0  0
   20.3610  -15.6150   -2.2510 C   0  0  0  0  0  0  0  0  0  0  0  0
   19.0820  -15.6050   -2.7970 C   0  0  0  0  0  0  0  0  0  0  0  0
   18.0710  -14.8420   -2.2280 C   0  0  0  0  0  0  0  0  0  0  0  0
   16.3340  -14.8090   -3.0080 Br  0  0  0  0  0  0  0  0  0  0  0  0
   18.3410  -14.0940   -1.0960 C   0  0  0  0  0  0  0  0  0  0  0  0
   19.6160  -14.0990   -0.5300 C   0  0  0  0  0  0  0  0  0  0  0  0
  1 18  1  0  0  0  0
  2  1  1  0  0  0  0
  3  2  2  0  0  0  0
  4  5  2  0  0  0  0
  4  3  1  0  0  0  0
  5  6  1  0  0  0  0
  6  1  2  0  0  0  0
  7  3  1  0  0  0  0
  7 17  2  0  0  0  0
  8  7  1  0  0  0  0
  9  8  2  0  0  0  0
  9 10  1  0  0  0  0
 10 11  1  0  0  0  0
 10 16  2  0  0  0  0
 11 13  1  0  0  0  0
 12 11  1  0  0  0  0
 13 14  2  0  0  0  0
 14 15  1  0  0  0  0
 16 17  1  0  0  0  0
 16 14  1  0  0  0  0
 18 19  1  0  0  0  0
 20 19  1  1  0  0  0
 20 21  1  0  0  0  0
 20 25  1  0  0  0  0
 21 22  1  0  0  0  0
 23 21  1  0  0  0  0
 24 21  1  0  0  0  0
 26 32  2  0  0  0  0
 26 25  1  0  0  0  0
 27 26  1  0  0  0  0
 28 27  2  0  0  0  0
 28 29  1  0  0  0  0
 29 31  2  0  0  0  0
 30 29  1  0  0  0  0
 31 32  1  0  0  0  0
M  END
>  <minimizedAffinity>
-7.43356991

$$$$

 OpenBabel12271915523D

 32 35  0  0  1  0  0  0  0  0999 V2000
   24.7600  -12.1850   -0.2240 C   0  0  0  0  0  0  0  0  0  0  0  0
   23.4250  -12.4560   -0.5430 C   0  0  0  0  0  0  0  0  0  0  0  0
   23.0320  -13.7400   -0.9480 C   0  0  0  0  0  0  0  0  0  0  0  0
   24.0440  -14.7000   -0.9870 C   0  0  0  0  0  0  0  0  0  0  0  0
   25.3310  -14.4510   -0.6610 N   0  0  0  0  0  0  0  0  0  0  0  0
   25.6870  -13.2110   -0.2850 C   0  0  0  0  0  0  0  0  0  0  0  0
   21.6400  -14.0330   -1.2830 C   0  0  0  0  0  0  0  0  0  0  0  0
   21.2180  -15.2520   -1.8140 C   0  0  0  0  0  0  0  0  0  0  0  0
   19.8690  -15.5110   -2.1470 C   0  0  0  0  0  0  0  0  0  0  0  0
   18.9270  -14.5150   -1.9170 C   0  0  0  0  0  0  0  0  0  0  0  0
   17.5890  -14.4520   -2.1150 N   0  0  0  0  0  0  0  0  0  0  0  0
   16.9650  -15.1590   -2.4920 H   0  0  0  0  0  0  0  0  0  0  0  0
   17.1080  -13.2580   -1.7300 N   0  0  0  0  0  0  0  0  0  0  0  0
   18.1400  -12.5550   -1.2700 C   0  0  0  0  0  0  0  0  0  0  0  0
   18.0060  -11.1700   -0.7490 C   0  0  0  0  0  0  0  0  0  0  0  0
   19.3080  -13.2960   -1.3770 C   0  0  0  0  0  0  0  0  0  0  0  0
   20.6500  -13.0590   -1.0760 C   0  0  0  0  0  0  0  0  0  0  0  0
   25.0090  -10.8860    0.1210 O   0  0  0  0  0  0  0  0  0  0  0  0
   24.1920   -9.8880   -0.4980 C   0  0  0  0  0  0  0  0  0  0  0  0
   24.8720   -9.3230   -1.7570 C   0  0  1  0  0  0  0  0  0  0  0  0
   26.3570   -9.4520   -1.6440 N   0  0  0  0  0  0  0  0  0  0  0  0
   26.6410  -10.4430   -1.7180 H   0  0  0  0  0  0  0  0  0  0  0  0
   26.8300   -8.9410   -2.3990 H   0  0  0  0  0  0  0  0  0  0  0  0
   26.7060   -9.0620   -0.7510 H   0  0  0  0  0  0  0  0  0  0  0  0
   24.4500  -10.0060   -3.0610 C   0  0  0  0  0  0  0  0  0  0  0  0
   23.0150   -9.7430   -3.3950 C   0  0  0  0  0  0  0  0  0  0  0  0
   22.5450   -8.4410   -3.5620 C   0  0  0  0  0  0  0  0  0  0  0  0
   21.2200   -8.2240   -3.9220 C   0  0  0  0  0  0  0  0  0  0  0  0
   20.3480   -9.2890   -4.1020 C   0  0  0  0  0  0  0  0  0  0  0  0
   18.5250   -8.9750   -4.5590 Br  0  0  0  0  0  0  0  0  0  0  0  0
   20.8100  -10.5820   -3.9310 C   0  0  0  0  0  0  0  0  0  0  0  0
   22.1390  -10.8180   -3.5780 C   0  0  0  0  0  0  0  0  0  0  0  0
  1 18  1  0  0  0  0
  2  1  2  0  0  0  0
  3  2  1  0  0  0  0
  4  3  2  0  0  0  0
  4  5  1  0  0  0  0
  5  6  2  0  0  0  0
  6  1  1  0  0  0  0
  7 17  1  0  0  0  0
  7  3  1  0  0  0  0
  8  7  2  0  0  0  0
  9 10  2  0  0  0  0
  9  8  1  0  0  0  0
 10 16  1  0  0  0  0
 11 10  1  0  0  0  0
 11 13  1  0  0  0  0
 12 11  1  0  0  0  0
 13 14  2  0  0  0  0
 14 15  1  0  0  0  0
 16 14  1  0  0  0  0
 16 17  2  0  0  0  0
 19 18  1  0  0  0  0
 20 25  1  6  0  0  0
 20 21  1  0  0  0  0
 20 19  1  0  0  0  0
 21 24  1  0  0  0  0
 22 21  1  0  0  0  0
 23 21  1  0  0  0  0
 26 25  1  0  0  0  0
 27 26  1  0  0  0  0
 28 27  2  0  0  0  0
 29 31  2  0  0  0  0
 29 28  1  0  0  0  0
 30 29  1  0  0  0  0
 31 32  1  0  0  0  0
 32 26  2  0  0  0  0
M  END
>  <minimizedAffinity>
-7.32975912

$$$$
