
 OpenBabel12271915483D

 25 29  0  0  1  0  0  0  0  0999 V2000
   17.8650  -12.2270   -1.8690 C   0  0  1  0  0  0  0  0  0  0  0  0
   18.6420  -13.5020   -1.4420 C   0  0  1  0  0  0  0  0  0  0  0  0
   18.4120  -14.6710   -2.3560 C   0  0  0  0  0  0  0  0  0  0  0  0
   17.0780  -14.8250   -2.7820 C   0  0  0  0  0  0  0  0  0  0  0  0
   16.7590  -15.8720   -3.6270 C   0  0  0  0  0  0  0  0  0  0  0  0
   15.5340  -16.1470   -4.1680 O   0  0  0  0  0  0  0  0  0  0  0  0
   15.7310  -17.4510   -4.7700 C   0  0  0  0  0  0  0  0  0  0  0  0
   17.1490  -17.7070   -4.8840 O   0  0  0  0  0  0  0  0  0  0  0  0
   17.6760  -16.7710   -4.0410 C   0  0  0  0  0  0  0  0  0  0  0  0
   18.9850  -16.6690   -3.6190 C   0  0  0  0  0  0  0  0  0  0  0  0
   19.3550  -15.6220   -2.7620 C   0  0  0  0  0  0  0  0  0  0  0  0
   20.8030  -15.6270   -2.3900 C   0  0  0  0  0  0  0  0  0  0  0  0
   21.4300  -14.3370   -2.8400 C   0  0  0  0  0  0  0  0  0  0  0  0
   21.1730  -13.1460   -2.0050 N   0  0  2  0  0  0  0  0  0  0  0  0
   21.0900  -12.3590   -2.6770 H   0  0  0  0  0  0  0  0  0  0  0  0
   22.3530  -12.8280   -1.1400 C   0  0  0  0  0  0  0  0  0  0  0  0
   22.0460  -13.4700    0.2000 C   0  0  0  0  0  0  0  0  0  0  0  0
   20.5430  -13.6180    0.2570 C   0  0  0  0  0  0  0  0  0  0  0  0
   20.0420  -13.0340   -1.0600 C   0  0  2  0  0  0  0  0  0  0  0  0
   19.8220  -11.5670   -0.8090 C   0  0  0  0  0  0  0  0  0  0  0  0
   18.6480  -11.1440   -1.2550 C   0  0  2  0  0  0  0  0  0  0  0  0
   17.7880  -12.0650   -3.2670 O   0  0  0  0  0  0  0  0  0  0  0  0
   18.6730  -12.0090   -3.6600 H   0  0  0  0  0  0  0  0  0  0  0  0
   18.2380   -9.8430   -1.0960 O   0  0  0  0  0  0  0  0  0  0  0  0
   17.4280   -9.5670    0.0500 C   0  0  0  0  0  0  0  0  0  0  0  0
  1 22  1  6  0  0  0
  1  2  1  0  0  0  0
  1 21  1  0  0  0  0
  2 19  1  6  0  0  0
  3  2  1  0  0  0  0
  4  3  2  0  0  0  0
  5  4  1  0  0  0  0
  6  5  1  0  0  0  0
  7  6  1  0  0  0  0
  8  7  1  0  0  0  0
  8  9  1  0  0  0  0
  9  5  2  0  0  0  0
  9 10  1  0  0  0  0
 10 11  2  0  0  0  0
 11 12  1  0  0  0  0
 11  3  1  0  0  0  0
 13 12  1  0  0  0  0
 13 14  1  0  0  0  0
 14 16  1  0  0  0  0
 14 19  1  1  0  0  0
 15 14  1  0  0  0  0
 16 17  1  0  0  0  0
 17 18  1  0  0  0  0
 19 20  1  1  0  0  0
 19 18  1  0  0  0  0
 21 24  1  1  0  0  0
 21 20  1  0  0  0  0
 23 22  1  0  0  0  0
 24 25  1  0  0  0  0
M  END
>  <minimizedAffinity>
-8.12954426

$$$$

 OpenBabel12271915483D

 25 29  0  0  1  0  0  0  0  0999 V2000
   22.0920  -14.6830   -1.9410 C   0  0  1  0  0  0  0  0  0  0  0  0
   21.2770  -13.6340   -2.7440 C   0  0  1  0  0  0  0  0  0  0  0  0
   19.8610  -14.0590   -3.0090 C   0  0  0  0  0  0  0  0  0  0  0  0
   19.7140  -15.4160   -3.3590 C   0  0  0  0  0  0  0  0  0  0  0  0
   18.4500  -15.9080   -3.6230 C   0  0  0  0  0  0  0  0  0  0  0  0
   18.1200  -17.1980   -3.9350 O   0  0  0  0  0  0  0  0  0  0  0  0
   16.7260  -17.0910   -4.3210 C   0  0  0  0  0  0  0  0  0  0  0  0
   16.2050  -15.8260   -3.8560 O   0  0  0  0  0  0  0  0  0  0  0  0
   17.3490  -15.1300   -3.5820 C   0  0  0  0  0  0  0  0  0  0  0  0
   17.4580  -13.7910   -3.2720 C   0  0  0  0  0  0  0  0  0  0  0  0
   18.7210  -13.2470   -2.9970 C   0  0  0  0  0  0  0  0  0  0  0  0
   18.6940  -11.7880   -2.6710 C   0  0  0  0  0  0  0  0  0  0  0  0
   19.2520  -11.5840   -1.2900 C   0  0  0  0  0  0  0  0  0  0  0  0
   20.7210  -11.6340   -1.1520 N   0  0  2  0  0  0  0  0  0  0  0  0
   20.8910  -12.0910   -0.2360 H   0  0  0  0  0  0  0  0  0  0  0  0
   21.3000  -10.2570   -1.0380 C   0  0  0  0  0  0  0  0  0  0  0  0
   21.7380   -9.8950   -2.4450 C   0  0  0  0  0  0  0  0  0  0  0  0
   21.9370  -11.2070   -3.1700 C   0  0  0  0  0  0  0  0  0  0  0  0
   21.6170  -12.2790   -2.1340 C   0  0  2  0  0  0  0  0  0  0  0  0
   22.9100  -12.5730   -1.4250 C   0  0  0  0  0  0  0  0  0  0  0  0
   23.1520  -13.8720   -1.3220 C   0  0  2  0  0  0  0  0  0  0  0  0
   21.3290  -15.3500   -0.9620 O   0  0  0  0  0  0  0  0  0  0  0  0
   20.9580  -14.7220   -0.3230 H   0  0  0  0  0  0  0  0  0  0  0  0
   24.2970  -14.3530   -0.7350 O   0  0  0  0  0  0  0  0  0  0  0  0
   25.3050  -13.3870   -0.4260 C   0  0  0  0  0  0  0  0  0  0  0  0
  1 21  1  0  0  0  0
  1 22  1  1  0  0  0
  2 19  1  1  0  0  0
  2  1  1  0  0  0  0
  3 11  1  0  0  0  0
  3  2  1  0  0  0  0
  4  3  2  0  0  0  0
  5  9  2  0  0  0  0
  5  4  1  0  0  0  0
  6  5  1  0  0  0  0
  7  6  1  0  0  0  0
  7  8  1  0  0  0  0
  8  9  1  0  0  0  0
  9 10  1  0  0  0  0
 10 11  2  0  0  0  0
 11 12  1  0  0  0  0
 12 13  1  0  0  0  0
 13 14  1  0  0  0  0
 14 19  1  6  0  0  0
 14 16  1  0  0  0  0
 14 15  1  0  0  0  0
 17 16  1  0  0  0  0
 18 17  1  0  0  0  0
 19 18  1  6  0  0  0
 19 20  1  0  0  0  0
 20 21  1  0  0  0  0
 21 24  1  6  0  0  0
 22 23  1  0  0  0  0
 24 25  1  0  0  0  0
M  END
>  <minimizedAffinity>
-7.99050999

$$$$

 OpenBabel12271915483D

 25 29  0  0  1  0  0  0  0  0999 V2000
   20.4600  -11.2230   -3.3000 C   0  0  1  0  0  0  0  0  0  0  0  0
   20.6200  -12.2930   -2.1860 C   0  0  1  0  0  0  0  0  0  0  0  0
   19.9150  -13.5810   -2.4950 C   0  0  0  0  0  0  0  0  0  0  0  0
   18.6420  -13.4250   -3.0790 C   0  0  0  0  0  0  0  0  0  0  0  0
   17.9080  -14.5510   -3.4030 C   0  0  0  0  0  0  0  0  0  0  0  0
   16.6820  -14.5870   -4.0070 O   0  0  0  0  0  0  0  0  0  0  0  0
   16.3050  -15.9820   -3.8940 C   0  0  0  0  0  0  0  0  0  0  0  0
   17.4790  -16.7620   -3.5740 O   0  0  0  0  0  0  0  0  0  0  0  0
   18.3550  -15.8000   -3.1570 C   0  0  0  0  0  0  0  0  0  0  0  0
   19.5830  -15.9900   -2.5590 C   0  0  0  0  0  0  0  0  0  0  0  0
   20.3630  -14.8770   -2.2140 C   0  0  0  0  0  0  0  0  0  0  0  0
   21.6710  -15.2280   -1.5800 C   0  0  0  0  0  0  0  0  0  0  0  0
   22.7880  -14.6740   -2.4210 C   0  0  0  0  0  0  0  0  0  0  0  0
   23.0620  -13.2280   -2.2950 N   0  0  2  0  0  0  0  0  0  0  0  0
   23.3220  -12.9180   -3.2510 H   0  0  0  0  0  0  0  0  0  0  0  0
   24.2650  -12.9800   -1.4390 C   0  0  0  0  0  0  0  0  0  0  0  0
   23.7140  -12.6980   -0.0530 C   0  0  0  0  0  0  0  0  0  0  0  0
   22.2900  -12.2310   -0.2580 C   0  0  0  0  0  0  0  0  0  0  0  0
   22.0860  -12.2500   -1.7690 C   0  0  2  0  0  0  0  0  0  0  0  0
   22.5110  -10.8950   -2.2640 C   0  0  0  0  0  0  0  0  0  0  0  0
   21.6290  -10.3550   -3.0920 C   0  0  2  0  0  0  0  0  0  0  0  0
   20.4590  -11.7680   -4.6000 O   0  0  0  0  0  0  0  0  0  0  0  0
   21.2840  -12.2470   -4.7760 H   0  0  0  0  0  0  0  0  0  0  0  0
   21.8110   -9.1060   -3.6330 O   0  0  0  0  0  0  0  0  0  0  0  0
   22.7290   -9.0150   -4.7270 C   0  0  0  0  0  0  0  0  0  0  0  0
  1 22  1  6  0  0  0
  1 21  1  0  0  0  0
  1  2  1  0  0  0  0
  2 19  1  6  0  0  0
  3 11  1  0  0  0  0
  3  2  1  0  0  0  0
  4  3  2  0  0  0  0
  5  9  2  0  0  0  0
  5  4  1  0  0  0  0
  6  7  1  0  0  0  0
  6  5  1  0  0  0  0
  7  8  1  0  0  0  0
  8  9  1  0  0  0  0
  9 10  1  0  0  0  0
 10 11  2  0  0  0  0
 11 12  1  0  0  0  0
 13 14  1  0  0  0  0
 13 12  1  0  0  0  0
 14 19  1  1  0  0  0
 14 16  1  0  0  0  0
 15 14  1  0  0  0  0
 16 17  1  0  0  0  0
 18 17  1  0  0  0  0
 19 20  1  6  0  0  0
 19 18  1  0  0  0  0
 21 24  1  1  0  0  0
 21 20  1  0  0  0  0
 23 22  1  0  0  0  0
 25 24  1  0  0  0  0
M  END
>  <minimizedAffinity>
-7.7983079

$$$$

 OpenBabel12271915483D

 25 29  0  0  1  0  0  0  0  0999 V2000
   20.7800  -15.0530   -1.8390 C   0  0  1  0  0  0  0  0  0  0  0  0
   20.6940  -13.7330   -1.0260 C   0  0  1  0  0  0  0  0  0  0  0  0
   22.0150  -13.0320   -0.8920 C   0  0  0  0  0  0  0  0  0  0  0  0
   23.1070  -13.8870   -0.6460 C   0  0  0  0  0  0  0  0  0  0  0  0
   24.3700  -13.3410   -0.5060 C   0  0  0  0  0  0  0  0  0  0  0  0
   25.5400  -14.0180   -0.3060 O   0  0  0  0  0  0  0  0  0  0  0  0
   26.4840  -12.9570   -0.0140 C   0  0  0  0  0  0  0  0  0  0  0  0
   25.9140  -11.6950   -0.4280 O   0  0  0  0  0  0  0  0  0  0  0  0
   24.5930  -12.0120   -0.5730 C   0  0  0  0  0  0  0  0  0  0  0  0
   23.5430  -11.1430   -0.7820 C   0  0  0  0  0  0  0  0  0  0  0  0
   22.2440  -11.6520   -0.9300 C   0  0  0  0  0  0  0  0  0  0  0  0
   21.2050  -10.6020   -1.1580 C   0  0  0  0  0  0  0  0  0  0  0  0
   20.5330  -10.8550   -2.4790 C   0  0  0  0  0  0  0  0  0  0  0  0
   19.5210  -11.9290   -2.5150 N   0  0  2  0  0  0  0  0  0  0  0  0
   19.6340  -12.3750   -3.4460 H   0  0  0  0  0  0  0  0  0  0  0  0
   18.1340  -11.3650   -2.4940 C   0  0  0  0  0  0  0  0  0  0  0  0
   17.7090  -11.4160   -1.0380 C   0  0  0  0  0  0  0  0  0  0  0  0
   18.5620  -12.4830   -0.3910 C   0  0  0  0  0  0  0  0  0  0  0  0
   19.4410  -13.0170   -1.5170 C   0  0  2  0  0  0  0  0  0  0  0  0
   18.6690  -14.1410   -2.1520 C   0  0  0  0  0  0  0  0  0  0  0  0
   19.4030  -15.2300   -2.3250 C   0  0  2  0  0  0  0  0  0  0  0  0
   21.6910  -14.9880   -2.9130 O   0  0  0  0  0  0  0  0  0  0  0  0
   21.4470  -14.2830   -3.5320 H   0  0  0  0  0  0  0  0  0  0  0  0
   18.8780  -16.3810   -2.8600 O   0  0  0  0  0  0  0  0  0  0  0  0
   17.6950  -16.2330   -3.6490 C   0  0  0  0  0  0  0  0  0  0  0  0
  1 22  1  6  0  0  0
  1  2  1  0  0  0  0
  2 19  1  6  0  0  0
  2  3  1  0  0  0  0
  3  4  1  0  0  0  0
  4  5  2  0  0  0  0
  5  6  1  0  0  0  0
  6  7  1  0  0  0  0
  8  7  1  0  0  0  0
  9  5  1  0  0  0  0
  9  8  1  0  0  0  0
 10  9  2  0  0  0  0
 11  3  2  0  0  0  0
 11 10  1  0  0  0  0
 12 11  1  0  0  0  0
 13 12  1  0  0  0  0
 14 16  1  0  0  0  0
 14 13  1  0  0  0  0
 14 19  1  1  0  0  0
 15 14  1  0  0  0  0
 16 17  1  0  0  0  0
 17 18  1  0  0  0  0
 19 20  1  6  0  0  0
 19 18  1  0  0  0  0
 21 24  1  1  0  0  0
 21 20  1  0  0  0  0
 21  1  1  0  0  0  0
 23 22  1  0  0  0  0
 25 24  1  0  0  0  0
M  END
>  <minimizedAffinity>
-7.68554068

$$$$

 OpenBabel12271915483D

 25 29  0  0  1  0  0  0  0  0999 V2000
   20.8190  -10.7290   -2.9980 C   0  0  1  0  0  0  0  0  0  0  0  0
   21.3660  -12.1660   -2.7850 C   0  0  1  0  0  0  0  0  0  0  0  0
   22.6200  -12.2080   -1.9600 C   0  0  0  0  0  0  0  0  0  0  0  0
   23.5470  -11.1870   -2.2540 C   0  0  0  0  0  0  0  0  0  0  0  0
   24.7350  -11.1360   -1.5490 C   0  0  0  0  0  0  0  0  0  0  0  0
   25.7230  -10.1990   -1.6730 O   0  0  0  0  0  0  0  0  0  0  0  0
   26.7990  -10.7550   -0.8770 C   0  0  0  0  0  0  0  0  0  0  0  0
   26.2650  -11.7910   -0.0230 O   0  0  0  0  0  0  0  0  0  0  0  0
   25.0540  -12.0430   -0.6040 C   0  0  0  0  0  0  0  0  0  0  0  0
   24.1850  -13.0730   -0.3110 C   0  0  0  0  0  0  0  0  0  0  0  0
   22.9670  -13.1660   -1.0000 C   0  0  0  0  0  0  0  0  0  0  0  0
   22.1200  -14.3240   -0.5800 C   0  0  0  0  0  0  0  0  0  0  0  0
   20.8060  -13.8080   -0.0630 C   0  0  0  0  0  0  0  0  0  0  0  0
   19.8120  -13.3890   -1.0710 N   0  0  2  0  0  0  0  0  0  0  0  0
   19.3360  -12.5660   -0.6540 H   0  0  0  0  0  0  0  0  0  0  0  0
   18.7530  -14.4320   -1.2510 C   0  0  0  0  0  0  0  0  0  0  0  0
   19.1970  -15.2430   -2.4540 C   0  0  0  0  0  0  0  0  0  0  0  0
   20.1200  -14.3440   -3.2460 C   0  0  0  0  0  0  0  0  0  0  0  0
   20.1550  -13.0350   -2.4650 C   0  0  2  0  0  0  0  0  0  0  0  0
   19.0240  -12.2000   -2.9980 C   0  0  0  0  0  0  0  0  0  0  0  0
   19.3930  -10.9580   -3.2770 C   0  0  2  0  0  0  0  0  0  0  0  0
   20.9880   -9.8960   -1.8730 O   0  0  0  0  0  0  0  0  0  0  0  0
   20.5370  -10.2650   -1.0980 H   0  0  0  0  0  0  0  0  0  0  0  0
   18.5170  -10.0420   -3.8040 O   0  0  0  0  0  0  0  0  0  0  0  0
   19.0620   -9.1130   -4.7460 C   0  0  0  0  0  0  0  0  0  0  0  0
  1  2  1  0  0  0  0
  1 22  1  1  0  0  0
  2 19  1  1  0  0  0
  2  3  1  0  0  0  0
  3 11  1  0  0  0  0
  4  3  2  0  0  0  0
  4  5  1  0  0  0  0
  5  9  2  0  0  0  0
  6  5  1  0  0  0  0
  6  7  1  0  0  0  0
  7  8  1  0  0  0  0
  9 10  1  0  0  0  0
  9  8  1  0  0  0  0
 11 12  1  0  0  0  0
 11 10  2  0  0  0  0
 12 13  1  0  0  0  0
 14 19  1  6  0  0  0
 14 15  1  0  0  0  0
 14 13  1  0  0  0  0
 16 14  1  0  0  0  0
 17 16  1  0  0  0  0
 18 17  1  0  0  0  0
 19 18  1  6  0  0  0
 20 19  1  0  0  0  0
 21 24  1  6  0  0  0
 21  1  1  0  0  0  0
 21 20  1  0  0  0  0
 22 23  1  0  0  0  0
 25 24  1  0  0  0  0
M  END
>  <minimizedAffinity>
-7.31786013

$$$$

 OpenBabel12271915483D

 25 29  0  0  1  0  0  0  0  0999 V2000
   19.7470  -10.5310   -1.8950 C   0  0  1  0  0  0  0  0  0  0  0  0
   20.6680  -11.6410   -2.4690 C   0  0  1  0  0  0  0  0  0  0  0  0
   22.0370  -11.1460   -2.8360 C   0  0  0  0  0  0  0  0  0  0  0  0
   22.0520   -9.8860   -3.4670 C   0  0  0  0  0  0  0  0  0  0  0  0
   23.2640   -9.3390   -3.8460 C   0  0  0  0  0  0  0  0  0  0  0  0
   23.4680   -8.1180   -4.4280 O   0  0  0  0  0  0  0  0  0  0  0  0
   24.8690   -8.1680   -4.8010 C   0  0  0  0  0  0  0  0  0  0  0  0
   25.5080   -9.2490   -4.0860 O   0  0  0  0  0  0  0  0  0  0  0  0
   24.4360   -9.9790   -3.6560 C   0  0  0  0  0  0  0  0  0  0  0  0
   24.4570  -11.2260   -3.0690 C   0  0  0  0  0  0  0  0  0  0  0  0
   23.2510  -11.8210   -2.6680 C   0  0  0  0  0  0  0  0  0  0  0  0
   23.4200  -13.1680   -2.0420 C   0  0  0  0  0  0  0  0  0  0  0  0
   22.8740  -13.1300   -0.6420 C   0  0  0  0  0  0  0  0  0  0  0  0
   21.4050  -13.1950   -0.4980 N   0  0  2  0  0  0  0  0  0  0  0  0
   21.1850  -12.5730    0.3030 H   0  0  0  0  0  0  0  0  0  0  0  0
   20.9640  -14.5670   -0.0890 C   0  0  0  0  0  0  0  0  0  0  0  0
   20.5750  -15.2590   -1.3810 C   0  0  0  0  0  0  0  0  0  0  0  0
   20.2530  -14.1570   -2.3640 C   0  0  0  0  0  0  0  0  0  0  0  0
   20.4580  -12.8640   -1.5830 C   0  0  2  0  0  0  0  0  0  0  0  0
   19.1370  -12.5540   -0.9340 C   0  0  0  0  0  0  0  0  0  0  0  0
   18.7680  -11.2930   -1.1050 C   0  0  2  0  0  0  0  0  0  0  0  0
   20.4330   -9.6000   -1.0890 O   0  0  0  0  0  0  0  0  0  0  0  0
   20.8590  -10.0400   -0.3370 H   0  0  0  0  0  0  0  0  0  0  0  0
   17.5770  -10.8130   -0.6180 O   0  0  0  0  0  0  0  0  0  0  0  0
   16.9480   -9.7820   -1.3830 C   0  0  0  0  0  0  0  0  0  0  0  0
  1 21  1  0  0  0  0
  1 22  1  1  0  0  0
  2  1  1  0  0  0  0
  2 19  1  1  0  0  0
  3 11  1  0  0  0  0
  3  2  1  0  0  0  0
  4  3  2  0  0  0  0
  5  9  2  0  0  0  0
  5  4  1  0  0  0  0
  6  5  1  0  0  0  0
  7  6  1  0  0  0  0
  7  8  1  0  0  0  0
  8  9  1  0  0  0  0
  9 10  1  0  0  0  0
 10 11  2  0  0  0  0
 11 12  1  0  0  0  0
 12 13  1  0  0  0  0
 13 14  1  0  0  0  0
 14 19  1  6  0  0  0
 14 16  1  0  0  0  0
 14 15  1  0  0  0  0
 17 16  1  0  0  0  0
 18 17  1  0  0  0  0
 19 18  1  6  0  0  0
 19 20  1  0  0  0  0
 21 20  1  0  0  0  0
 21 24  1  6  0  0  0
 22 23  1  0  0  0  0
 25 24  1  0  0  0  0
M  END
>  <minimizedAffinity>
-7.0895257

$$$$

 OpenBabel12271915483D

 25 29  0  0  1  0  0  0  0  0999 V2000
   25.1490  -12.7520   -0.0980 C   0  0  1  0  0  0  0  0  0  0  0  0
   25.5160  -11.3190   -0.5710 C   0  0  1  0  0  0  0  0  0  0  0  0
   26.9960  -11.0640   -0.5960 C   0  0  0  0  0  0  0  0  0  0  0  0
   27.6980  -11.5940    0.5040 C   0  0  0  0  0  0  0  0  0  0  0  0
   29.0680  -11.4150    0.5770 C   0  0  0  0  0  0  0  0  0  0  0  0
   29.9080  -11.8920    1.5440 O   0  0  0  0  0  0  0  0  0  0  0  0
   31.1600  -11.2240    1.2440 C   0  0  0  0  0  0  0  0  0  0  0  0
   31.0970  -10.6890   -0.0970 O   0  0  0  0  0  0  0  0  0  0  0  0
   29.7560  -10.7260   -0.3560 C   0  0  0  0  0  0  0  0  0  0  0  0
   29.0970  -10.1670   -1.4310 C   0  0  0  0  0  0  0  0  0  0  0  0
   27.7080  -10.3240   -1.5470 C   0  0  0  0  0  0  0  0  0  0  0  0
   27.1250   -9.6740   -2.7600 C   0  0  0  0  0  0  0  0  0  0  0  0
   26.4520  -10.7220   -3.6020 C   0  0  0  0  0  0  0  0  0  0  0  0
   25.1230  -11.1840   -3.1540 N   0  0  2  0  0  0  0  0  0  0  0  0
   25.0990  -12.1970   -3.3780 H   0  0  0  0  0  0  0  0  0  0  0  0
   24.0320  -10.5570   -3.9660 C   0  0  0  0  0  0  0  0  0  0  0  0
   23.5670   -9.3640   -3.1520 C   0  0  0  0  0  0  0  0  0  0  0  0
   23.9580   -9.6590   -1.7210 C   0  0  0  0  0  0  0  0  0  0  0  0
   24.6230  -11.0300   -1.7720 C   0  0  2  0  0  0  0  0  0  0  0  0
   23.5200  -12.0360   -1.5880 C   0  0  0  0  0  0  0  0  0  0  0  0
   23.8180  -12.9610   -0.6870 C   0  0  2  0  0  0  0  0  0  0  0  0
   26.0580  -13.7340   -0.5390 O   0  0  0  0  0  0  0  0  0  0  0  0
   26.1060  -13.7530   -1.5080 H   0  0  0  0  0  0  0  0  0  0  0  0
   22.9330  -13.9550   -0.3480 O   0  0  0  0  0  0  0  0  0  0  0  0
   21.5540  -13.5800   -0.2760 C   0  0  0  0  0  0  0  0  0  0  0  0
  1 22  1  6  0  0  0
  2 19  1  6  0  0  0
  2  1  1  0  0  0  0
  3  2  1  0  0  0  0
  3  4  2  0  0  0  0
  4  5  1  0  0  0  0
  5  6  1  0  0  0  0
  7  6  1  0  0  0  0
  8  7  1  0  0  0  0
  9  8  1  0  0  0  0
  9  5  2  0  0  0  0
 10  9  1  0  0  0  0
 11 10  2  0  0  0  0
 11  3  1  0  0  0  0
 12 11  1  0  0  0  0
 13 14  1  0  0  0  0
 13 12  1  0  0  0  0
 14 19  1  1  0  0  0
 15 14  1  0  0  0  0
 16 14  1  0  0  0  0
 16 17  1  0  0  0  0
 17 18  1  0  0  0  0
 19 18  1  1  0  0  0
 19 20  1  0  0  0  0
 20 21  1  0  0  0  0
 21 24  1  1  0  0  0
 21  1  1  0  0  0  0
 23 22  1  0  0  0  0
 24 25  1  0  0  0  0
M  END
>  <minimizedAffinity>
-7.03810263

$$$$

 OpenBabel12271915483D

 25 29  0  0  1  0  0  0  0  0999 V2000
   24.9310  -11.8920   -0.5140 C   0  0  1  0  0  0  0  0  0  0  0  0
   24.1580  -11.8400   -1.8590 C   0  0  1  0  0  0  0  0  0  0  0  0
   22.6720  -11.9800   -1.6970 C   0  0  0  0  0  0  0  0  0  0  0  0
   22.2770  -12.9430   -0.7470 C   0  0  0  0  0  0  0  0  0  0  0  0
   20.9290  -13.1500   -0.5210 C   0  0  0  0  0  0  0  0  0  0  0  0
   20.3700  -14.0080    0.3850 O   0  0  0  0  0  0  0  0  0  0  0  0
   18.9630  -13.9770    0.0360 C   0  0  0  0  0  0  0  0  0  0  0  0
   18.7110  -12.8250   -0.8000 O   0  0  0  0  0  0  0  0  0  0  0  0
   19.9720  -12.4790   -1.1950 C   0  0  0  0  0  0  0  0  0  0  0  0
   20.3220  -11.5500   -2.1530 C   0  0  0  0  0  0  0  0  0  0  0  0
   21.6780  -11.3070   -2.4160 C   0  0  0  0  0  0  0  0  0  0  0  0
   21.9140  -10.2740   -3.4710 C   0  0  0  0  0  0  0  0  0  0  0  0
   22.7080   -9.1430   -2.8800 C   0  0  0  0  0  0  0  0  0  0  0  0
   24.1580   -9.3650   -2.7090 N   0  0  2  0  0  0  0  0  0  0  0  0
   24.4030   -8.8800   -1.8250 H   0  0  0  0  0  0  0  0  0  0  0  0
   24.9400   -8.6790   -3.7870 C   0  0  0  0  0  0  0  0  0  0  0  0
   25.1970   -9.7490   -4.8310 C   0  0  0  0  0  0  0  0  0  0  0  0
   25.0870  -11.0730   -4.1090 C   0  0  0  0  0  0  0  0  0  0  0  0
   24.7840  -10.7030   -2.6610 C   0  0  2  0  0  0  0  0  0  0  0  0
   26.1160  -10.5420   -1.9830 C   0  0  0  0  0  0  0  0  0  0  0  0
   26.1810  -11.1830   -0.8250 C   0  0  2  0  0  0  0  0  0  0  0  0
   24.2440  -11.2660    0.5470 O   0  0  0  0  0  0  0  0  0  0  0  0
   24.0740  -10.3320    0.3470 H   0  0  0  0  0  0  0  0  0  0  0  0
   27.3230  -11.1890   -0.0620 O   0  0  0  0  0  0  0  0  0  0  0  0
   27.8990   -9.9120    0.2280 C   0  0  0  0  0  0  0  0  0  0  0  0
  1 22  1  1  0  0  0
  2 19  1  1  0  0  0
  2  3  1  0  0  0  0
  2  1  1  0  0  0  0
  3  4  2  0  0  0  0
  4  5  1  0  0  0  0
  5  6  1  0  0  0  0
  7  6  1  0  0  0  0
  8  7  1  0  0  0  0
  9  8  1  0  0  0  0
  9  5  2  0  0  0  0
 10  9  1  0  0  0  0
 11 10  2  0  0  0  0
 11  3  1  0  0  0  0
 12 13  1  0  0  0  0
 12 11  1  0  0  0  0
 13 14  1  0  0  0  0
 14 19  1  1  0  0  0
 14 15  1  0  0  0  0
 16 14  1  0  0  0  0
 17 18  1  0  0  0  0
 17 16  1  0  0  0  0
 19 18  1  6  0  0  0
 19 20  1  0  0  0  0
 20 21  1  0  0  0  0
 21  1  1  0  0  0  0
 21 24  1  6  0  0  0
 23 22  1  0  0  0  0
 24 25  1  0  0  0  0
M  END
>  <minimizedAffinity>
-6.97111845

$$$$

 OpenBabel12271915483D

 25 29  0  0  1  0  0  0  0  0999 V2000
   24.1850  -10.0780   -4.0580 C   0  0  1  0  0  0  0  0  0  0  0  0
   24.4820  -11.1730   -2.9990 C   0  0  1  0  0  0  0  0  0  0  0  0
   25.7360  -10.9150   -2.2140 C   0  0  0  0  0  0  0  0  0  0  0  0
   26.8140  -10.4290   -2.9800 C   0  0  0  0  0  0  0  0  0  0  0  0
   28.0160  -10.1590   -2.3520 C   0  0  0  0  0  0  0  0  0  0  0  0
   29.1470   -9.6480   -2.9270 O   0  0  0  0  0  0  0  0  0  0  0  0
   30.1360   -9.7860   -1.8760 C   0  0  0  0  0  0  0  0  0  0  0  0
   29.4580  -10.0140   -0.6200 O   0  0  0  0  0  0  0  0  0  0  0  0
   28.2040  -10.3670   -1.0320 C   0  0  0  0  0  0  0  0  0  0  0  0
   27.1800  -10.8690   -0.2580 C   0  0  0  0  0  0  0  0  0  0  0  0
   25.9430  -11.1580   -0.8510 C   0  0  0  0  0  0  0  0  0  0  0  0
   24.9230  -11.6910    0.1030 C   0  0  0  0  0  0  0  0  0  0  0  0
   23.7350  -10.7690    0.1160 C   0  0  0  0  0  0  0  0  0  0  0  0
   22.7960  -10.8780   -1.0190 N   0  0  2  0  0  0  0  0  0  0  0  0
   22.4830   -9.9060   -1.2040 H   0  0  0  0  0  0  0  0  0  0  0  0
   21.5680  -11.6420   -0.6320 C   0  0  0  0  0  0  0  0  0  0  0  0
   21.8260  -13.0650   -1.0890 C   0  0  0  0  0  0  0  0  0  0  0  0
   22.8640  -12.9700   -2.1840 C   0  0  0  0  0  0  0  0  0  0  0  0
   23.1500  -11.4790   -2.3230 C   0  0  2  0  0  0  0  0  0  0  0  0
   22.1630  -10.9560   -3.3300 C   0  0  0  0  0  0  0  0  0  0  0  0
   22.7320  -10.1980   -4.2570 C   0  0  2  0  0  0  0  0  0  0  0  0
   24.5310   -8.7800   -3.6290 O   0  0  0  0  0  0  0  0  0  0  0  0
   24.0480   -8.5410   -2.8220 H   0  0  0  0  0  0  0  0  0  0  0  0
   22.0110   -9.6480   -5.2880 O   0  0  0  0  0  0  0  0  0  0  0  0
   20.6290  -10.0080   -5.3580 C   0  0  0  0  0  0  0  0  0  0  0  0
  1 22  1  1  0  0  0
  1  2  1  0  0  0  0
  2 19  1  1  0  0  0
  2  3  1  0  0  0  0
  3 11  2  0  0  0  0
  4  5  2  0  0  0  0
  4  3  1  0  0  0  0
  5  9  1  0  0  0  0
  6  5  1  0  0  0  0
  6  7  1  0  0  0  0
  7  8  1  0  0  0  0
  9  8  1  0  0  0  0
  9 10  2  0  0  0  0
 11 10  1  0  0  0  0
 11 12  1  0  0  0  0
 12 13  1  0  0  0  0
 14 19  1  6  0  0  0
 14 16  1  0  0  0  0
 14 13  1  0  0  0  0
 15 14  1  0  0  0  0
 17 16  1  0  0  0  0
 18 17  1  0  0  0  0
 19 20  1  6  0  0  0
 19 18  1  0  0  0  0
 21 24  1  6  0  0  0
 21  1  1  0  0  0  0
 21 20  1  0  0  0  0
 22 23  1  0  0  0  0
 25 24  1  0  0  0  0
M  END
>  <minimizedAffinity>
-6.73623466

$$$$
