
 OpenBabel12271915453D

 42 46  0  0  1  0  0  0  0  0999 V2000
   22.2310  -10.6420   -3.0700 C   0  0  1  0  0  0  0  0  0  0  0  0
   23.0940   -9.4510   -3.7340 C   0  0  1  0  0  0  0  0  0  0  0  0
   22.9080   -7.9990   -3.2140 C   0  0  0  0  0  0  0  0  0  0  0  0
   22.0580   -7.7080   -2.1010 C   0  0  0  0  0  0  0  0  0  0  0  0
   21.9400   -6.4080   -1.6530 C   0  0  0  0  0  0  0  0  0  0  0  0
   21.1410   -6.0220   -0.6410 O   0  0  0  0  0  0  0  0  0  0  0  0
   21.2280   -4.5600   -0.8210 C   0  0  0  0  0  0  0  0  0  0  0  0
   22.4110   -4.2090   -1.6340 O   0  0  0  0  0  0  0  0  0  0  0  0
   22.6490   -5.4210   -2.2090 C   0  0  0  0  0  0  0  0  0  0  0  0
   23.5050   -5.6390   -3.2270 C   0  0  0  0  0  0  0  0  0  0  0  0
   23.6600   -6.9500   -3.7720 C   0  0  0  0  0  0  0  0  0  0  0  0
   24.6310   -7.1010   -4.8870 C   0  0  0  0  0  0  0  0  0  0  0  0
   25.5650   -8.2400   -4.8000 C   0  0  0  0  0  0  0  0  0  0  0  0
   25.5330   -8.9190   -3.4220 N   0  0  2  0  0  0  0  0  0  0  0  0
   25.3620   -8.1810   -2.6910 H   0  0  0  0  0  0  0  0  0  0  0  0
   26.7520   -9.7040   -3.2150 C   0  0  0  0  0  0  0  0  0  0  0  0
   26.4500  -11.0110   -3.9500 C   0  0  0  0  0  0  0  0  0  0  0  0
   24.9640  -11.0890   -4.1740 C   0  0  0  0  0  0  0  0  0  0  0  0
   24.4380   -9.9360   -3.3010 C   0  0  2  0  0  0  0  0  0  0  0  0
   24.2200  -10.4590   -1.8790 C   0  0  0  0  0  0  0  0  0  0  0  0
   22.9930  -10.8240   -1.7820 C   0  0  1  0  0  0  0  0  0  0  0  0
   22.3850  -11.2740   -0.6620 O   0  0  0  0  0  0  0  0  0  0  0  0
   22.5890  -12.6810   -0.4300 C   0  0  0  0  0  0  0  0  0  0  0  0
   20.7660  -10.3320   -2.9650 O   0  0  0  0  0  0  0  0  0  0  0  0
   20.0010  -11.3730   -3.2050 C   0  0  0  0  0  0  0  0  0  0  0  0
   20.1560  -12.2520   -4.1710 O   0  0  0  0  0  0  0  0  0  0  0  0
   18.7450  -11.4490   -2.3460 C   0  0  2  0  0  0  0  0  0  0  0  0
   17.5660  -11.7560   -3.1530 O   0  0  0  0  0  0  0  0  0  0  0  0
   17.5510  -12.7000   -3.1970 H   0  0  0  0  0  0  0  0  0  0  0  0
   18.6690  -10.0290   -1.6300 C   0  0  0  0  0  0  0  0  0  0  0  0
   17.4220   -9.8000   -0.6990 C   0  0  0  0  0  0  0  0  0  0  0  0
   17.5260   -9.4320    0.4950 O   0  0  0  0  0  0  0  0  0  0  0  0
   16.3220  -10.1200   -1.3530 O   0  0  0  0  0  0  0  0  0  0  0  0
   15.4140   -8.9780   -1.6600 C   0  0  0  0  0  0  0  0  0  0  0  0
   19.0780  -12.5560   -1.3850 C   0  0  0  0  0  0  0  0  0  0  0  0
   18.0540  -13.7840   -1.2710 C   0  0  0  0  0  0  0  0  0  0  0  0
   18.5700  -14.9500   -2.0530 C   0  0  0  0  0  0  0  0  0  0  0  0
   17.7890  -15.2880   -3.3660 C   0  0  0  0  0  0  0  0  0  0  0  0
   18.1800  -16.6320   -4.0000 C   0  0  0  0  0  0  0  0  0  0  0  0
   16.3670  -15.3220   -2.9580 C   0  0  0  0  0  0  0  0  0  0  0  0
   17.9700  -14.2580   -4.3380 O   0  0  0  0  0  0  0  0  0  0  0  0
   17.3260  -13.5810   -4.1420 H   0  0  0  0  0  0  0  0  0  0  0  0
  1 24  1  1  0  0  0
  1 21  1  0  0  0  0
  2 19  1  1  0  0  0
  2  3  1  0  0  0  0
  2  1  1  0  0  0  0
  3  4  2  0  0  0  0
  4  5  1  0  0  0  0
  5  6  1  0  0  0  0
  7  6  1  0  0  0  0
  8  7  1  0  0  0  0
  9  5  2  0  0  0  0
  9  8  1  0  0  0  0
 10  9  1  0  0  0  0
 11 10  2  0  0  0  0
 11  3  1  0  0  0  0
 12 13  1  0  0  0  0
 12 11  1  0  0  0  0
 13 14  1  0  0  0  0
 14 19  1  1  0  0  0
 14 16  1  0  0  0  0
 14 15  1  0  0  0  0
 17 16  1  0  0  0  0
 18 17  1  0  0  0  0
 19 18  1  6  0  0  0
 19 20  1  0  0  0  0
 20 21  1  0  0  0  0
 21 22  1  1  0  0  0
 22 23  1  0  0  0  0
 25 24  1  0  0  0  0
 25 27  1  0  0  0  0
 26 25  2  0  0  0  0
 27 30  1  1  0  0  0
 27 35  1  0  0  0  0
 28 27  1  0  0  0  0
 29 28  1  0  0  0  0
 30 31  1  0  0  0  0
 31 32  2  0  0  0  0
 33 31  1  0  0  0  0
 34 33  1  0  0  0  0
 35 36  1  0  0  0  0
 37 36  1  0  0  0  0
 38 40  1  0  0  0  0
 38 37  1  0  0  0  0
 39 38  1  0  0  0  0
 41 42  1  0  0  0  0
 41 38  1  0  0  0  0
M  END
>  <minimizedAffinity>
-7.36276913

$$$$

 OpenBabel12271915453D

 42 46  0  0  1  0  0  0  0  0999 V2000
   19.2110  -10.6190   -1.6060 C   0  0  1  0  0  0  0  0  0  0  0  0
   20.0470  -11.9420   -1.2080 C   0  0  1  0  0  0  0  0  0  0  0  0
   19.6190  -13.3150   -1.7940 C   0  0  0  0  0  0  0  0  0  0  0  0
   18.5600  -13.4200   -2.7510 C   0  0  0  0  0  0  0  0  0  0  0  0
   18.2270  -14.6560   -3.2690 C   0  0  0  0  0  0  0  0  0  0  0  0
   17.2260  -14.8690   -4.1410 O   0  0  0  0  0  0  0  0  0  0  0  0
   17.1880  -16.3440   -4.0950 C   0  0  0  0  0  0  0  0  0  0  0  0
   18.4520  -16.8770   -3.5450 O   0  0  0  0  0  0  0  0  0  0  0  0
   18.9140  -15.7510   -2.9320 C   0  0  0  0  0  0  0  0  0  0  0  0
   19.9550  -15.7100   -2.0760 C   0  0  0  0  0  0  0  0  0  0  0  0
   20.3410  -14.4760   -1.4690 C   0  0  0  0  0  0  0  0  0  0  0  0
   21.5040  -14.5200   -0.5450 C   0  0  0  0  0  0  0  0  0  0  0  0
   22.5240  -13.4660   -0.7140 C   0  0  0  0  0  0  0  0  0  0  0  0
   22.3210  -12.6600   -2.0060 N   0  0  2  0  0  0  0  0  0  0  0  0
   21.9470  -13.3060   -2.7470 H   0  0  0  0  0  0  0  0  0  0  0  0
   23.5610  -11.9710   -2.3740 C   0  0  0  0  0  0  0  0  0  0  0  0
   23.5340  -10.7190   -1.4960 C   0  0  0  0  0  0  0  0  0  0  0  0
   22.1280  -10.5290   -0.9950 C   0  0  0  0  0  0  0  0  0  0  0  0
   21.3370  -11.5410   -1.8420 C   0  0  2  0  0  0  0  0  0  0  0  0
   20.9280  -10.8670   -3.1550 C   0  0  0  0  0  0  0  0  0  0  0  0
   19.7490  -10.3850   -2.9950 C   0  0  1  0  0  0  0  0  0  0  0  0
   19.0040   -9.7770   -3.9450 O   0  0  0  0  0  0  0  0  0  0  0  0
   19.7810   -9.3170   -5.0680 C   0  0  0  0  0  0  0  0  0  0  0  0
   17.7260  -10.7850   -1.4620 O   0  0  0  0  0  0  0  0  0  0  0  0
   17.1310   -9.7080   -1.0010 C   0  0  0  0  0  0  0  0  0  0  0  0
   17.1490   -9.2740    0.2410 O   0  0  0  0  0  0  0  0  0  0  0  0
   16.2270   -9.0030   -2.0050 C   0  0  2  0  0  0  0  0  0  0  0  0
   16.0950   -9.7790   -3.2360 O   0  0  0  0  0  0  0  0  0  0  0  0
   15.3810  -10.3730   -3.0640 H   0  0  0  0  0  0  0  0  0  0  0  0
   16.9110   -7.5820   -2.2220 C   0  0  0  0  0  0  0  0  0  0  0  0
   16.8360   -7.0050   -3.6840 C   0  0  0  0  0  0  0  0  0  0  0  0
   15.9010   -7.2780   -4.4730 O   0  0  0  0  0  0  0  0  0  0  0  0
   17.9150   -6.2870   -3.9270 O   0  0  0  0  0  0  0  0  0  0  0  0
   18.9870   -6.3880   -2.8960 C   0  0  0  0  0  0  0  0  0  0  0  0
   14.9280   -8.9040   -1.2560 C   0  0  0  0  0  0  0  0  0  0  0  0
   13.5930   -8.6360   -2.1010 C   0  0  0  0  0  0  0  0  0  0  0  0
   12.6860   -9.8210   -2.0080 C   0  0  0  0  0  0  0  0  0  0  0  0
   12.7160  -10.7990   -3.2290 C   0  0  0  0  0  0  0  0  0  0  0  0
   11.5030  -11.7390   -3.3110 C   0  0  0  0  0  0  0  0  0  0  0  0
   12.7450   -9.9150   -4.4160 C   0  0  0  0  0  0  0  0  0  0  0  0
   13.9040  -11.5910   -3.2100 O   0  0  0  0  0  0  0  0  0  0  0  0
   14.5870  -11.0690   -3.6240 H   0  0  0  0  0  0  0  0  0  0  0  0
  1 24  1  6  0  0  0
  1  2  1  0  0  0  0
  2 19  1  6  0  0  0
  3 11  1  0  0  0  0
  3  2  1  0  0  0  0
  4  3  2  0  0  0  0
  5  9  2  0  0  0  0
  5  4  1  0  0  0  0
  6  7  1  0  0  0  0
  6  5  1  0  0  0  0
  7  8  1  0  0  0  0
  8  9  1  0  0  0  0
  9 10  1  0  0  0  0
 10 11  2  0  0  0  0
 11 12  1  0  0  0  0
 13 12  1  0  0  0  0
 14 19  1  1  0  0  0
 14 13  1  0  0  0  0
 15 14  1  0  0  0  0
 16 14  1  0  0  0  0
 16 17  1  0  0  0  0
 17 18  1  0  0  0  0
 19 20  1  6  0  0  0
 19 18  1  0  0  0  0
 20 21  1  0  0  0  0
 21 22  1  6  0  0  0
 21  1  1  0  0  0  0
 23 22  1  0  0  0  0
 24 25  1  0  0  0  0
 25 26  2  0  0  0  0
 27 30  1  6  0  0  0
 27 35  1  0  0  0  0
 27 25  1  0  0  0  0
 28 29  1  0  0  0  0
 28 27  1  0  0  0  0
 31 30  1  0  0  0  0
 32 31  2  0  0  0  0
 33 31  1  0  0  0  0
 33 34  1  0  0  0  0
 36 37  1  0  0  0  0
 36 35  1  0  0  0  0
 38 41  1  0  0  0  0
 38 37  1  0  0  0  0
 39 38  1  0  0  0  0
 40 38  1  0  0  0  0
 42 41  1  0  0  0  0
M  END
>  <minimizedAffinity>
-7.33341599

$$$$

 OpenBabel12271915453D

 42 46  0  0  1  0  0  0  0  0999 V2000
   21.6900   -9.1040   -2.9100 C   0  0  1  0  0  0  0  0  0  0  0  0
   23.1850   -8.9600   -2.3180 C   0  0  1  0  0  0  0  0  0  0  0  0
   23.9190  -10.2260   -1.7970 C   0  0  0  0  0  0  0  0  0  0  0  0
   23.3380  -11.5280   -1.9150 C   0  0  0  0  0  0  0  0  0  0  0  0
   24.0340  -12.6300   -1.4640 C   0  0  0  0  0  0  0  0  0  0  0  0
   23.5640  -13.8900   -1.4930 O   0  0  0  0  0  0  0  0  0  0  0  0
   24.5910  -14.5400   -0.6560 C   0  0  0  0  0  0  0  0  0  0  0  0
   25.8040  -13.7010   -0.5790 O   0  0  0  0  0  0  0  0  0  0  0  0
   25.2680  -12.5090   -0.9660 C   0  0  0  0  0  0  0  0  0  0  0  0
   25.8910  -11.3170   -0.8750 C   0  0  0  0  0  0  0  0  0  0  0  0
   25.2260  -10.1220   -1.2880 C   0  0  0  0  0  0  0  0  0  0  0  0
   25.9890   -8.8530   -1.1620 C   0  0  0  0  0  0  0  0  0  0  0  0
   25.9540   -7.9420   -2.3230 C   0  0  0  0  0  0  0  0  0  0  0  0
   25.3390   -8.6030   -3.5660 N   0  0  2  0  0  0  0  0  0  0  0  0
   25.6020   -9.6210   -3.5660 H   0  0  0  0  0  0  0  0  0  0  0  0
   25.7340   -7.8750   -4.7750 C   0  0  0  0  0  0  0  0  0  0  0  0
   24.7470   -6.7070   -4.8130 C   0  0  0  0  0  0  0  0  0  0  0  0
   23.5970   -7.0370   -3.9010 C   0  0  0  0  0  0  0  0  0  0  0  0
   23.8420   -8.5230   -3.5850 C   0  0  2  0  0  0  0  0  0  0  0  0
   23.1810   -9.3710   -4.6750 C   0  0  0  0  0  0  0  0  0  0  0  0
   22.0060   -9.6850   -4.2650 C   0  0  1  0  0  0  0  0  0  0  0  0
   21.1300  -10.4910   -4.9060 O   0  0  0  0  0  0  0  0  0  0  0  0
   20.5270   -9.8710   -6.0580 C   0  0  0  0  0  0  0  0  0  0  0  0
   20.7680   -9.8880   -2.0230 O   0  0  0  0  0  0  0  0  0  0  0  0
   19.5250   -9.4660   -2.0700 C   0  0  0  0  0  0  0  0  0  0  0  0
   19.1080   -8.2350   -1.8650 O   0  0  0  0  0  0  0  0  0  0  0  0
   18.4870  -10.5670   -2.2410 C   0  0  2  0  0  0  0  0  0  0  0  0
   18.2630  -10.8720   -3.6530 O   0  0  0  0  0  0  0  0  0  0  0  0
   18.9260  -11.5130   -3.8620 H   0  0  0  0  0  0  0  0  0  0  0  0
   17.1910  -10.0080   -1.5020 C   0  0  0  0  0  0  0  0  0  0  0  0
   15.9450   -9.7340   -2.4230 C   0  0  0  0  0  0  0  0  0  0  0  0
   14.8940  -10.4160   -2.3610 O   0  0  0  0  0  0  0  0  0  0  0  0
   16.2300   -8.7620   -3.2670 O   0  0  0  0  0  0  0  0  0  0  0  0
   15.7800   -7.4060   -2.8440 C   0  0  0  0  0  0  0  0  0  0  0  0
   19.1120  -11.7180   -1.5050 C   0  0  0  0  0  0  0  0  0  0  0  0
   18.1860  -12.9780   -1.1530 C   0  0  0  0  0  0  0  0  0  0  0  0
   18.7380  -14.2100   -1.7970 C   0  0  0  0  0  0  0  0  0  0  0  0
   17.9140  -14.7770   -3.0000 C   0  0  0  0  0  0  0  0  0  0  0  0
   18.3840  -16.1560   -3.4890 C   0  0  0  0  0  0  0  0  0  0  0  0
   16.5270  -14.8720   -2.4930 C   0  0  0  0  0  0  0  0  0  0  0  0
   17.9450  -13.8700   -4.1030 O   0  0  0  0  0  0  0  0  0  0  0  0
   17.2560  -13.2270   -3.9480 H   0  0  0  0  0  0  0  0  0  0  0  0
  1  2  1  0  0  0  0
  1 24  1  1  0  0  0
  2 19  1  6  0  0  0
  2  3  1  0  0  0  0
  3 11  1  0  0  0  0
  4  3  2  0  0  0  0
  4  5  1  0  0  0  0
  5  9  2  0  0  0  0
  6  5  1  0  0  0  0
  6  7  1  0  0  0  0
  7  8  1  0  0  0  0
  9 10  1  0  0  0  0
  9  8  1  0  0  0  0
 11 12  1  0  0  0  0
 11 10  2  0  0  0  0
 13 12  1  0  0  0  0
 14 19  1  1  0  0  0
 14 15  1  0  0  0  0
 14 13  1  0  0  0  0
 16 14  1  0  0  0  0
 17 16  1  0  0  0  0
 17 18  1  0  0  0  0
 18 19  1  0  0  0  0
 19 20  1  6  0  0  0
 20 21  1  0  0  0  0
 21 22  1  1  0  0  0
 21  1  1  0  0  0  0
 23 22  1  0  0  0  0
 25 24  1  0  0  0  0
 25 26  2  0  0  0  0
 27 25  1  0  0  0  0
 27 35  1  1  0  0  0
 27 30  1  0  0  0  0
 28 27  1  0  0  0  0
 29 28  1  0  0  0  0
 31 32  2  0  0  0  0
 31 30  1  0  0  0  0
 33 34  1  0  0  0  0
 33 31  1  0  0  0  0
 35 36  1  0  0  0  0
 37 36  1  0  0  0  0
 38 40  1  0  0  0  0
 38 37  1  0  0  0  0
 39 38  1  0  0  0  0
 41 42  1  0  0  0  0
 41 38  1  0  0  0  0
M  END
>  <minimizedAffinity>
-7.20630598

$$$$

 OpenBabel12271915453D

 42 46  0  0  1  0  0  0  0  0999 V2000
   19.8610  -10.3080   -2.2860 C   0  0  1  0  0  0  0  0  0  0  0  0
   20.4810  -11.6060   -1.5540 C   0  0  1  0  0  0  0  0  0  0  0  0
   19.9730  -13.0180   -1.9530 C   0  0  0  0  0  0  0  0  0  0  0  0
   19.0360  -13.2000   -3.0190 C   0  0  0  0  0  0  0  0  0  0  0  0
   18.6290  -14.4740   -3.3620 C   0  0  0  0  0  0  0  0  0  0  0  0
   17.7260  -14.7510   -4.3200 O   0  0  0  0  0  0  0  0  0  0  0  0
   17.5120  -16.1820   -4.0290 C   0  0  0  0  0  0  0  0  0  0  0  0
   18.6270  -16.7180   -3.2210 O   0  0  0  0  0  0  0  0  0  0  0  0
   19.1370  -15.5470   -2.7490 C   0  0  0  0  0  0  0  0  0  0  0  0
   20.0610  -15.4440   -1.7720 C   0  0  0  0  0  0  0  0  0  0  0  0
   20.5100  -14.1610   -1.3350 C   0  0  0  0  0  0  0  0  0  0  0  0
   21.5360  -14.1410   -0.2600 C   0  0  0  0  0  0  0  0  0  0  0  0
   22.6840  -13.2350   -0.4590 C   0  0  0  0  0  0  0  0  0  0  0  0
   22.7390  -12.6650   -1.8840 N   0  0  2  0  0  0  0  0  0  0  0  0
   22.3870  -13.3990   -2.5510 H   0  0  0  0  0  0  0  0  0  0  0  0
   24.0860  -12.1730   -2.1830 C   0  0  0  0  0  0  0  0  0  0  0  0
   24.0960  -10.7840   -1.5430 C   0  0  0  0  0  0  0  0  0  0  0  0
   22.6700  -10.3760   -1.2890 C   0  0  0  0  0  0  0  0  0  0  0  0
   21.8780  -11.4490   -2.0560 C   0  0  2  0  0  0  0  0  0  0  0  0
   21.7160  -10.9940   -3.5090 C   0  0  0  0  0  0  0  0  0  0  0  0
   20.5910  -10.3840   -3.6030 C   0  0  1  0  0  0  0  0  0  0  0  0
   20.0450   -9.8960   -4.7390 O   0  0  0  0  0  0  0  0  0  0  0  0
   21.0210   -9.6010   -5.7580 C   0  0  0  0  0  0  0  0  0  0  0  0
   18.3610  -10.3070   -2.3300 O   0  0  0  0  0  0  0  0  0  0  0  0
   17.8260   -9.3270   -1.6370 C   0  0  0  0  0  0  0  0  0  0  0  0
   18.0630   -9.0410   -0.3740 O   0  0  0  0  0  0  0  0  0  0  0  0
   16.7270   -8.5620   -2.3620 C   0  0  2  0  0  0  0  0  0  0  0  0
   16.6530   -7.1760   -1.9050 O   0  0  0  0  0  0  0  0  0  0  0  0
   17.2790   -6.7170   -2.4450 H   0  0  0  0  0  0  0  0  0  0  0  0
   15.4030   -9.3970   -2.0670 C   0  0  0  0  0  0  0  0  0  0  0  0
   14.2160   -8.5890   -1.4250 C   0  0  0  0  0  0  0  0  0  0  0  0
   13.8360   -7.4780   -1.8640 O   0  0  0  0  0  0  0  0  0  0  0  0
   13.7760   -9.2300   -0.3590 O   0  0  0  0  0  0  0  0  0  0  0  0
   12.3300   -9.5910   -0.3910 C   0  0  0  0  0  0  0  0  0  0  0  0
   17.1570   -8.6620   -3.7990 C   0  0  0  0  0  0  0  0  0  0  0  0
   16.9340   -7.3860   -4.7410 C   0  0  0  0  0  0  0  0  0  0  0  0
   16.5480   -7.8300   -6.1160 C   0  0  0  0  0  0  0  0  0  0  0  0
   17.6250   -7.6110   -7.2290 C   0  0  0  0  0  0  0  0  0  0  0  0
   17.1000   -6.8790   -8.4750 C   0  0  0  0  0  0  0  0  0  0  0  0
   18.6770   -6.7990   -6.5790 C   0  0  0  0  0  0  0  0  0  0  0  0
   18.1860   -8.8590   -7.6390 O   0  0  0  0  0  0  0  0  0  0  0  0
   18.8840   -9.0610   -7.0190 H   0  0  0  0  0  0  0  0  0  0  0  0
  1 24  1  6  0  0  0
  1  2  1  0  0  0  0
  2 19  1  6  0  0  0
  3  2  1  0  0  0  0
  3 11  2  0  0  0  0
  4  3  1  0  0  0  0
  5  4  2  0  0  0  0
  5  9  1  0  0  0  0
  6  7  1  0  0  0  0
  6  5  1  0  0  0  0
  7  8  1  0  0  0  0
  8  9  1  0  0  0  0
  9 10  2  0  0  0  0
 10 11  1  0  0  0  0
 11 12  1  0  0  0  0
 13 12  1  0  0  0  0
 14 19  1  6  0  0  0
 14 13  1  0  0  0  0
 15 14  1  0  0  0  0
 16 14  1  0  0  0  0
 16 17  1  0  0  0  0
 17 18  1  0  0  0  0
 19 20  1  6  0  0  0
 19 18  1  0  0  0  0
 21 22  1  6  0  0  0
 21 20  1  0  0  0  0
 21  1  1  0  0  0  0
 23 22  1  0  0  0  0
 24 25  1  0  0  0  0
 25 26  2  0  0  0  0
 27 35  1  6  0  0  0
 27 30  1  0  0  0  0
 27 28  1  0  0  0  0
 27 25  1  0  0  0  0
 29 28  1  0  0  0  0
 30 31  1  0  0  0  0
 31 33  1  0  0  0  0
 32 31  2  0  0  0  0
 34 33  1  0  0  0  0
 36 35  1  0  0  0  0
 37 36  1  0  0  0  0
 38 40  1  0  0  0  0
 38 37  1  0  0  0  0
 39 38  1  0  0  0  0
 41 38  1  0  0  0  0
 41 42  1  0  0  0  0
M  END
>  <minimizedAffinity>
-7.20147943

$$$$

 OpenBabel12271915453D

 42 46  0  0  1  0  0  0  0  0999 V2000
   21.8480  -11.0740   -2.0850 C   0  0  1  0  0  0  0  0  0  0  0  0
   23.2530  -10.8000   -2.8310 C   0  0  1  0  0  0  0  0  0  0  0  0
   23.5370   -9.3920   -3.4210 C   0  0  0  0  0  0  0  0  0  0  0  0
   22.6220   -8.3080   -3.2380 C   0  0  0  0  0  0  0  0  0  0  0  0
   22.9230   -7.0640   -3.7550 C   0  0  0  0  0  0  0  0  0  0  0  0
   22.1160   -5.9910   -3.6730 O   0  0  0  0  0  0  0  0  0  0  0  0
   22.8230   -5.0970   -4.6100 C   0  0  0  0  0  0  0  0  0  0  0  0
   24.2120   -5.5570   -4.8160 O   0  0  0  0  0  0  0  0  0  0  0  0
   24.0830   -6.8410   -4.3800 C   0  0  0  0  0  0  0  0  0  0  0  0
   25.0090   -7.8080   -4.5390 C   0  0  0  0  0  0  0  0  0  0  0  0
   24.7600   -9.1310   -4.0640 C   0  0  0  0  0  0  0  0  0  0  0  0
   25.8380  -10.1320   -4.2730 C   0  0  0  0  0  0  0  0  0  0  0  0
   26.1840  -10.9840   -3.1180 C   0  0  0  0  0  0  0  0  0  0  0  0
   25.5340  -10.4940   -1.8160 N   0  0  2  0  0  0  0  0  0  0  0  0
   25.4920   -9.4430   -1.8390 H   0  0  0  0  0  0  0  0  0  0  0  0
   26.2410  -11.0460   -0.6570 C   0  0  0  0  0  0  0  0  0  0  0  0
   25.6400  -12.4460   -0.5210 C   0  0  0  0  0  0  0  0  0  0  0  0
   24.3570  -12.4830   -1.3060 C   0  0  0  0  0  0  0  0  0  0  0  0
   24.1320  -10.9980   -1.6410 C   0  0  2  0  0  0  0  0  0  0  0  0
   23.3690  -10.3450   -0.4850 C   0  0  0  0  0  0  0  0  0  0  0  0
   22.1190  -10.3910   -0.7690 C   0  0  1  0  0  0  0  0  0  0  0  0
   21.1180   -9.8520   -0.0360 O   0  0  0  0  0  0  0  0  0  0  0  0
   21.0310   -8.4190   -0.1620 C   0  0  0  0  0  0  0  0  0  0  0  0
   20.6540  -10.6100   -2.8690 O   0  0  0  0  0  0  0  0  0  0  0  0
   19.8310  -11.5850   -3.1800 C   0  0  0  0  0  0  0  0  0  0  0  0
   19.9840  -12.4600   -4.1510 O   0  0  0  0  0  0  0  0  0  0  0  0
   18.5180  -11.5780   -2.4070 C   0  0  2  0  0  0  0  0  0  0  0  0
   17.3990  -11.9780   -3.2570 O   0  0  0  0  0  0  0  0  0  0  0  0
   17.3860  -12.9210   -3.2000 H   0  0  0  0  0  0  0  0  0  0  0  0
   18.3930  -10.0890   -1.8550 C   0  0  0  0  0  0  0  0  0  0  0  0
   17.1710   -9.8150   -0.9030 C   0  0  0  0  0  0  0  0  0  0  0  0
   17.3080   -9.4820    0.2980 O   0  0  0  0  0  0  0  0  0  0  0  0
   16.0480  -10.0600   -1.5500 O   0  0  0  0  0  0  0  0  0  0  0  0
   15.1150   -8.9030   -1.6570 C   0  0  0  0  0  0  0  0  0  0  0  0
   18.7820  -12.5730   -1.3130 C   0  0  0  0  0  0  0  0  0  0  0  0
   17.8870  -13.9020   -1.2740 C   0  0  0  0  0  0  0  0  0  0  0  0
   18.5430  -14.9800   -2.0760 C   0  0  0  0  0  0  0  0  0  0  0  0
   17.8020  -15.3980   -3.3900 C   0  0  0  0  0  0  0  0  0  0  0  0
   18.2610  -16.7460   -3.9670 C   0  0  0  0  0  0  0  0  0  0  0  0
   16.3750  -15.4770   -3.0060 C   0  0  0  0  0  0  0  0  0  0  0  0
   17.9590  -14.3970   -4.3960 O   0  0  0  0  0  0  0  0  0  0  0  0
   17.2840  -13.7410   -4.2370 H   0  0  0  0  0  0  0  0  0  0  0  0
  1 24  1  6  0  0  0
  1 21  1  0  0  0  0
  2  1  1  0  0  0  0
  2 19  1  1  0  0  0
  3  4  1  0  0  0  0
  3  2  1  0  0  0  0
  5  6  1  0  0  0  0
  5  4  2  0  0  0  0
  7  6  1  0  0  0  0
  8  7  1  0  0  0  0
  8  9  1  0  0  0  0
  9  5  1  0  0  0  0
 10  9  2  0  0  0  0
 10 11  1  0  0  0  0
 11  3  2  0  0  0  0
 12 11  1  0  0  0  0
 12 13  1  0  0  0  0
 13 14  1  0  0  0  0
 14 19  1  1  0  0  0
 14 16  1  0  0  0  0
 15 14  1  0  0  0  0
 16 17  1  0  0  0  0
 18 17  1  0  0  0  0
 19 18  1  1  0  0  0
 19 20  1  0  0  0  0
 21 20  1  0  0  0  0
 21 22  1  6  0  0  0
 23 22  1  0  0  0  0
 25 24  1  0  0  0  0
 25 27  1  0  0  0  0
 26 25  2  0  0  0  0
 27 30  1  1  0  0  0
 27 35  1  0  0  0  0
 28 29  1  0  0  0  0
 28 27  1  0  0  0  0
 30 31  1  0  0  0  0
 31 32  2  0  0  0  0
 33 31  1  0  0  0  0
 34 33  1  0  0  0  0
 35 36  1  0  0  0  0
 37 36  1  0  0  0  0
 38 40  1  0  0  0  0
 38 37  1  0  0  0  0
 39 38  1  0  0  0  0
 41 42  1  0  0  0  0
 41 38  1  0  0  0  0
M  END
>  <minimizedAffinity>
-7.20142555

$$$$

 OpenBabel12271915453D

 42 46  0  0  1  0  0  0  0  0999 V2000
   20.5560   -9.3920   -3.2150 C   0  0  1  0  0  0  0  0  0  0  0  0
   21.6730   -9.5280   -2.0580 C   0  0  1  0  0  0  0  0  0  0  0  0
   22.2170  -10.9360   -1.6900 C   0  0  0  0  0  0  0  0  0  0  0  0
   21.8190  -12.1030   -2.4160 C   0  0  0  0  0  0  0  0  0  0  0  0
   22.3460  -13.3320   -2.0760 C   0  0  0  0  0  0  0  0  0  0  0  0
   22.0110  -14.4930   -2.6680 O   0  0  0  0  0  0  0  0  0  0  0  0
   22.6540  -15.4280   -1.7250 C   0  0  0  0  0  0  0  0  0  0  0  0
   23.6760  -14.7290   -0.9190 O   0  0  0  0  0  0  0  0  0  0  0  0
   23.2640  -13.4450   -1.1120 C   0  0  0  0  0  0  0  0  0  0  0  0
   23.7180  -12.3770   -0.4260 C   0  0  0  0  0  0  0  0  0  0  0  0
   23.1990  -11.0730   -0.6930 C   0  0  0  0  0  0  0  0  0  0  0  0
   23.7610   -9.9520    0.1030 C   0  0  0  0  0  0  0  0  0  0  0  0
   24.1370   -8.7340   -0.6420 C   0  0  0  0  0  0  0  0  0  0  0  0
   24.1190   -8.9510   -2.1630 N   0  0  2  0  0  0  0  0  0  0  0  0
   24.4260   -9.9380   -2.3620 H   0  0  0  0  0  0  0  0  0  0  0  0
   24.9180   -7.9220   -2.8310 C   0  0  0  0  0  0  0  0  0  0  0  0
   23.9560   -6.7350   -2.9110 C   0  0  0  0  0  0  0  0  0  0  0  0
   22.5600   -7.2490   -2.6850 C   0  0  0  0  0  0  0  0  0  0  0  0
   22.7540   -8.7740   -2.7580 C   0  0  2  0  0  0  0  0  0  0  0  0
   22.6450   -9.2130   -4.2210 C   0  0  0  0  0  0  0  0  0  0  0  0
   21.4280   -9.5600   -4.4340 C   0  0  1  0  0  0  0  0  0  0  0  0
   20.9390  -10.0790   -5.5830 O   0  0  0  0  0  0  0  0  0  0  0  0
   19.9960   -9.2110   -6.2410 C   0  0  0  0  0  0  0  0  0  0  0  0
   19.4080  -10.3470   -3.0530 O   0  0  0  0  0  0  0  0  0  0  0  0
   18.2550   -9.7410   -2.8800 C   0  0  0  0  0  0  0  0  0  0  0  0
   17.9220   -8.5480   -3.3260 O   0  0  0  0  0  0  0  0  0  0  0  0
   17.2920  -10.4640   -1.9480 C   0  0  2  0  0  0  0  0  0  0  0  0
   16.3570  -11.3020   -2.6950 O   0  0  0  0  0  0  0  0  0  0  0  0
   16.8130  -12.1230   -2.8040 H   0  0  0  0  0  0  0  0  0  0  0  0
   16.5820   -9.2970   -1.1300 C   0  0  0  0  0  0  0  0  0  0  0  0
   15.1810   -8.8350   -1.6770 C   0  0  0  0  0  0  0  0  0  0  0  0
   14.9980   -7.7160   -2.2130 O   0  0  0  0  0  0  0  0  0  0  0  0
   14.2810   -9.7610   -1.4130 O   0  0  0  0  0  0  0  0  0  0  0  0
   12.8780   -9.2670   -1.3040 C   0  0  0  0  0  0  0  0  0  0  0  0
   18.2210  -11.2780   -1.0910 C   0  0  0  0  0  0  0  0  0  0  0  0
   17.9030  -12.8380   -0.9100 C   0  0  0  0  0  0  0  0  0  0  0  0
   18.6830  -13.6340   -1.9080 C   0  0  0  0  0  0  0  0  0  0  0  0
   17.8360  -14.4830   -2.9120 C   0  0  0  0  0  0  0  0  0  0  0  0
   18.4880  -15.8150   -3.3140 C   0  0  0  0  0  0  0  0  0  0  0  0
   16.5630  -14.7440   -2.2030 C   0  0  0  0  0  0  0  0  0  0  0  0
   17.5630  -13.7360   -4.0980 O   0  0  0  0  0  0  0  0  0  0  0  0
   16.7920  -13.2040   -3.9140 H   0  0  0  0  0  0  0  0  0  0  0  0
  1 24  1  1  0  0  0
  1  2  1  0  0  0  0
  2 19  1  6  0  0  0
  2  3  1  0  0  0  0
  3 11  2  0  0  0  0
  4  5  2  0  0  0  0
  4  3  1  0  0  0  0
  5  9  1  0  0  0  0
  6  5  1  0  0  0  0
  6  7  1  0  0  0  0
  7  8  1  0  0  0  0
  9  8  1  0  0  0  0
  9 10  2  0  0  0  0
 11 10  1  0  0  0  0
 11 12  1  0  0  0  0
 13 12  1  0  0  0  0
 14 19  1  6  0  0  0
 14 13  1  0  0  0  0
 15 14  1  0  0  0  0
 16 14  1  0  0  0  0
 17 16  1  0  0  0  0
 17 18  1  0  0  0  0
 19 20  1  6  0  0  0
 19 18  1  0  0  0  0
 21 22  1  1  0  0  0
 21 20  1  0  0  0  0
 21  1  1  0  0  0  0
 23 22  1  0  0  0  0
 24 25  1  0  0  0  0
 25 27  1  0  0  0  0
 26 25  2  0  0  0  0
 27 30  1  1  0  0  0
 27 35  1  0  0  0  0
 28 27  1  0  0  0  0
 29 28  1  0  0  0  0
 31 33  1  0  0  0  0
 31 30  1  0  0  0  0
 32 31  2  0  0  0  0
 33 34  1  0  0  0  0
 35 36  1  0  0  0  0
 37 36  1  0  0  0  0
 38 40  1  0  0  0  0
 38 37  1  0  0  0  0
 39 38  1  0  0  0  0
 41 42  1  0  0  0  0
 41 38  1  0  0  0  0
M  END
>  <minimizedAffinity>
-7.18797016

$$$$

 OpenBabel12271915453D

 42 46  0  0  1  0  0  0  0  0999 V2000
   18.9590  -10.4850   -2.5500 C   0  0  1  0  0  0  0  0  0  0  0  0
   19.6010  -11.9480   -2.7780 C   0  0  1  0  0  0  0  0  0  0  0  0
   20.9610  -12.2920   -2.1110 C   0  0  0  0  0  0  0  0  0  0  0  0
   21.6110  -11.3750   -1.2260 C   0  0  0  0  0  0  0  0  0  0  0  0
   22.8060  -11.7280   -0.6320 C   0  0  0  0  0  0  0  0  0  0  0  0
   23.5160  -10.9280    0.1830 O   0  0  0  0  0  0  0  0  0  0  0  0
   24.7610  -11.7160    0.2550 C   0  0  0  0  0  0  0  0  0  0  0  0
   24.5140  -13.1130   -0.1590 O   0  0  0  0  0  0  0  0  0  0  0  0
   23.3410  -12.9370   -0.8290 C   0  0  0  0  0  0  0  0  0  0  0  0
   22.7510  -13.8630   -1.6100 C   0  0  0  0  0  0  0  0  0  0  0  0
   21.5300  -13.5650   -2.2880 C   0  0  0  0  0  0  0  0  0  0  0  0
   20.9450  -14.6470   -3.1220 C   0  0  0  0  0  0  0  0  0  0  0  0
   19.4970  -14.8900   -2.9690 C   0  0  0  0  0  0  0  0  0  0  0  0
   18.9030  -14.1420   -1.7660 N   0  0  2  0  0  0  0  0  0  0  0  0
   19.6260  -14.1130   -1.0020 H   0  0  0  0  0  0  0  0  0  0  0  0
   17.6300  -14.7480   -1.3700 C   0  0  0  0  0  0  0  0  0  0  0  0
   16.6320  -14.1260   -2.3480 C   0  0  0  0  0  0  0  0  0  0  0  0
   17.2740  -12.9100   -2.9600 C   0  0  0  0  0  0  0  0  0  0  0  0
   18.5290  -12.7270   -2.0900 C   0  0  2  0  0  0  0  0  0  0  0  0
   18.1600  -11.8790   -0.8690 C   0  0  0  0  0  0  0  0  0  0  0  0
   18.4230  -10.6550   -1.1510 C   0  0  1  0  0  0  0  0  0  0  0  0
   18.3070   -9.6040   -0.3080 O   0  0  0  0  0  0  0  0  0  0  0  0
   17.0090   -9.5120    0.3100 C   0  0  0  0  0  0  0  0  0  0  0  0
   19.9280   -9.3630   -2.7830 O   0  0  0  0  0  0  0  0  0  0  0  0
   19.4030   -8.3580   -3.4460 C   0  0  0  0  0  0  0  0  0  0  0  0
   18.2240   -7.8120   -3.2370 O   0  0  0  0  0  0  0  0  0  0  0  0
   20.2100   -7.9050   -4.6560 C   0  0  2  0  0  0  0  0  0  0  0  0
   20.0250   -6.4790   -4.9160 O   0  0  0  0  0  0  0  0  0  0  0  0
   20.6710   -6.0550   -4.3710 H   0  0  0  0  0  0  0  0  0  0  0  0
   19.6980   -8.8350   -5.8430 C   0  0  0  0  0  0  0  0  0  0  0  0
   18.6930   -8.1650   -6.8510 C   0  0  0  0  0  0  0  0  0  0  0  0
   19.0580   -7.3470   -7.7280 O   0  0  0  0  0  0  0  0  0  0  0  0
   17.4640   -8.5480   -6.5640 O   0  0  0  0  0  0  0  0  0  0  0  0
   16.5260   -7.4470   -6.2060 C   0  0  0  0  0  0  0  0  0  0  0  0
   21.6190   -8.2270   -4.2450 C   0  0  0  0  0  0  0  0  0  0  0  0
   22.4110   -9.3390   -5.0830 C   0  0  0  0  0  0  0  0  0  0  0  0
   23.0310  -10.3320   -4.1530 C   0  0  0  0  0  0  0  0  0  0  0  0
   24.4750   -9.9900   -3.6570 C   0  0  0  0  0  0  0  0  0  0  0  0
   25.3740  -11.2190   -3.4460 C   0  0  0  0  0  0  0  0  0  0  0  0
   25.0430   -9.1320   -4.7200 C   0  0  0  0  0  0  0  0  0  0  0  0
   24.4260   -9.2500   -2.4360 O   0  0  0  0  0  0  0  0  0  0  0  0
   24.3040   -8.3340   -2.6770 H   0  0  0  0  0  0  0  0  0  0  0  0
  1 24  1  1  0  0  0
  1 21  1  0  0  0  0
  2  1  1  0  0  0  0
  2  3  1  0  0  0  0
  2 19  1  1  0  0  0
  3  4  1  0  0  0  0
  4  5  2  0  0  0  0
  5  6  1  0  0  0  0
  6  7  1  0  0  0  0
  8  7  1  0  0  0  0
  9  5  1  0  0  0  0
  9  8  1  0  0  0  0
 10  9  2  0  0  0  0
 11  3  2  0  0  0  0
 11 10  1  0  0  0  0
 12 13  1  0  0  0  0
 12 11  1  0  0  0  0
 13 14  1  0  0  0  0
 14 19  1  6  0  0  0
 14 16  1  0  0  0  0
 14 15  1  0  0  0  0
 17 16  1  0  0  0  0
 18 17  1  0  0  0  0
 19 18  1  6  0  0  0
 19 20  1  0  0  0  0
 21 20  1  0  0  0  0
 21 22  1  1  0  0  0
 22 23  1  0  0  0  0
 25 26  2  0  0  0  0
 25 24  1  0  0  0  0
 27 30  1  6  0  0  0
 27 35  1  0  0  0  0
 27 25  1  0  0  0  0
 28 27  1  0  0  0  0
 28 29  1  0  0  0  0
 31 33  1  0  0  0  0
 31 30  1  0  0  0  0
 32 31  2  0  0  0  0
 33 34  1  0  0  0  0
 36 35  1  0  0  0  0
 36 37  1  0  0  0  0
 37 38  1  0  0  0  0
 38 39  1  0  0  0  0
 38 41  1  0  0  0  0
 40 38  1  0  0  0  0
 42 41  1  0  0  0  0
M  END
>  <minimizedAffinity>
-7.04894352

$$$$

 OpenBabel12271915453D

 42 46  0  0  1  0  0  0  0  0999 V2000
   22.1820   -9.2790   -1.8750 C   0  0  1  0  0  0  0  0  0  0  0  0
   23.1370  -10.3670   -1.1620 C   0  0  1  0  0  0  0  0  0  0  0  0
   22.7740  -11.8740   -1.2580 C   0  0  0  0  0  0  0  0  0  0  0  0
   21.6650  -12.3270   -2.0410 C   0  0  0  0  0  0  0  0  0  0  0  0
   21.3920  -13.6770   -2.1230 C   0  0  0  0  0  0  0  0  0  0  0  0
   20.3530  -14.2020   -2.7970 O   0  0  0  0  0  0  0  0  0  0  0  0
   20.4280  -15.5880   -2.2960 C   0  0  0  0  0  0  0  0  0  0  0  0
   21.7610  -15.8580   -1.7190 O   0  0  0  0  0  0  0  0  0  0  0  0
   22.1780  -14.5760   -1.5250 C   0  0  0  0  0  0  0  0  0  0  0  0
   23.2670  -14.2170   -0.8160 C   0  0  0  0  0  0  0  0  0  0  0  0
   23.6010  -12.8380   -0.6540 C   0  0  0  0  0  0  0  0  0  0  0  0
   24.8230  -12.5330    0.1350 C   0  0  0  0  0  0  0  0  0  0  0  0
   25.7480  -11.5360   -0.4380 C   0  0  0  0  0  0  0  0  0  0  0  0
   25.4010  -11.1850   -1.8930 N   0  0  2  0  0  0  0  0  0  0  0  0
   25.0280  -12.0480   -2.3640 H   0  0  0  0  0  0  0  0  0  0  0  0
   26.5590  -10.5850   -2.5600 C   0  0  0  0  0  0  0  0  0  0  0  0
   26.4980   -9.1240   -2.1120 C   0  0  0  0  0  0  0  0  0  0  0  0
   25.1180   -8.8570   -1.5750 C   0  0  0  0  0  0  0  0  0  0  0  0
   24.3490  -10.1210   -1.9980 C   0  0  2  0  0  0  0  0  0  0  0  0
   23.8060   -9.9130   -3.4140 C   0  0  0  0  0  0  0  0  0  0  0  0
   22.6080   -9.4650   -3.3100 C   0  0  1  0  0  0  0  0  0  0  0  0
   21.7580   -9.2230   -4.3330 O   0  0  0  0  0  0  0  0  0  0  0  0
   21.2800  -10.4230   -4.9700 C   0  0  0  0  0  0  0  0  0  0  0  0
   20.7260   -9.4650   -1.5600 O   0  0  0  0  0  0  0  0  0  0  0  0
   20.0030   -8.3980   -1.8190 C   0  0  0  0  0  0  0  0  0  0  0  0
   20.3990   -7.1460   -1.7390 O   0  0  0  0  0  0  0  0  0  0  0  0
   18.5320   -8.6810   -2.0970 C   0  0  2  0  0  0  0  0  0  0  0  0
   17.7230   -8.5170   -0.8920 O   0  0  0  0  0  0  0  0  0  0  0  0
   17.5070   -7.5970   -0.8770 H   0  0  0  0  0  0  0  0  0  0  0  0
   18.5170  -10.1650   -2.6730 C   0  0  0  0  0  0  0  0  0  0  0  0
   17.8020  -11.2390   -1.7730 C   0  0  0  0  0  0  0  0  0  0  0  0
   18.1920  -11.5220   -0.6160 O   0  0  0  0  0  0  0  0  0  0  0  0
   16.8220  -11.8000   -2.4550 O   0  0  0  0  0  0  0  0  0  0  0  0
   17.0220  -13.2420   -2.7780 C   0  0  0  0  0  0  0  0  0  0  0  0
   18.1990   -7.6570   -3.1460 C   0  0  0  0  0  0  0  0  0  0  0  0
   18.6120   -7.9730   -4.6620 C   0  0  0  0  0  0  0  0  0  0  0  0
   17.3940   -7.9790   -5.5290 C   0  0  0  0  0  0  0  0  0  0  0  0
   17.6490   -7.7930   -7.0620 C   0  0  0  0  0  0  0  0  0  0  0  0
   16.3930   -7.4280   -7.8680 C   0  0  0  0  0  0  0  0  0  0  0  0
   18.6350   -6.6930   -7.1470 C   0  0  0  0  0  0  0  0  0  0  0  0
   18.2210   -8.9750   -7.6240 O   0  0  0  0  0  0  0  0  0  0  0  0
   19.1620   -8.9220   -7.4710 H   0  0  0  0  0  0  0  0  0  0  0  0
  1 24  1  6  0  0  0
  1  2  1  0  0  0  0
  2 19  1  6  0  0  0
  3  2  1  0  0  0  0
  3 11  2  0  0  0  0
  4  3  1  0  0  0  0
  5  4  2  0  0  0  0
  5  9  1  0  0  0  0
  6  7  1  0  0  0  0
  6  5  1  0  0  0  0
  7  8  1  0  0  0  0
  8  9  1  0  0  0  0
  9 10  2  0  0  0  0
 10 11  1  0  0  0  0
 11 12  1  0  0  0  0
 13 12  1  0  0  0  0
 14 19  1  1  0  0  0
 14 13  1  0  0  0  0
 15 14  1  0  0  0  0
 16 17  1  0  0  0  0
 16 14  1  0  0  0  0
 17 18  1  0  0  0  0
 19 20  1  6  0  0  0
 19 18  1  0  0  0  0
 20 21  1  0  0  0  0
 21 22  1  1  0  0  0
 21  1  1  0  0  0  0
 23 22  1  0  0  0  0
 25 26  2  0  0  0  0
 25 24  1  0  0  0  0
 27 35  1  6  0  0  0
 27 25  1  0  0  0  0
 27 28  1  0  0  0  0
 28 29  1  0  0  0  0
 30 27  1  0  0  0  0
 30 31  1  0  0  0  0
 31 32  2  0  0  0  0
 33 31  1  0  0  0  0
 34 33  1  0  0  0  0
 36 35  1  0  0  0  0
 37 36  1  0  0  0  0
 38 37  1  0  0  0  0
 39 38  1  0  0  0  0
 40 38  1  0  0  0  0
 41 42  1  0  0  0  0
 41 38  1  0  0  0  0
M  END
>  <minimizedAffinity>
-6.81461954

$$$$

 OpenBabel12271915453D

 42 46  0  0  1  0  0  0  0  0999 V2000
   20.3410  -10.9010   -3.0660 C   0  0  1  0  0  0  0  0  0  0  0  0
   20.5480  -12.5010   -3.0860 C   0  0  1  0  0  0  0  0  0  0  0  0
   21.8040  -13.1130   -2.4070 C   0  0  0  0  0  0  0  0  0  0  0  0
   22.7320  -12.2990   -1.6840 C   0  0  0  0  0  0  0  0  0  0  0  0
   23.8220  -12.8840   -1.0710 C   0  0  0  0  0  0  0  0  0  0  0  0
   24.7720  -12.2070   -0.4020 O   0  0  0  0  0  0  0  0  0  0  0  0
   25.7590  -13.2910   -0.2400 C   0  0  0  0  0  0  0  0  0  0  0  0
   25.1180  -14.6080   -0.4350 O   0  0  0  0  0  0  0  0  0  0  0  0
   23.9970  -14.2080   -1.0970 C   0  0  0  0  0  0  0  0  0  0  0  0
   23.1300  -15.0340   -1.7170 C   0  0  0  0  0  0  0  0  0  0  0  0
   21.9950  -14.5060   -2.4050 C   0  0  0  0  0  0  0  0  0  0  0  0
   21.0880  -15.4880   -3.0530 C   0  0  0  0  0  0  0  0  0  0  0  0
   19.6410  -15.2980   -2.8320 C   0  0  0  0  0  0  0  0  0  0  0  0
   19.3490  -14.2560   -1.7420 N   0  0  2  0  0  0  0  0  0  0  0  0
   20.0990  -14.3230   -1.0070 H   0  0  0  0  0  0  0  0  0  0  0  0
   17.9860  -14.4260   -1.2310 C   0  0  0  0  0  0  0  0  0  0  0  0
   17.1340  -13.6920   -2.2680 C   0  0  0  0  0  0  0  0  0  0  0  0
   18.0410  -12.7980   -3.0690 C   0  0  0  0  0  0  0  0  0  0  0  0
   19.3520  -12.8510   -2.2650 C   0  0  2  0  0  0  0  0  0  0  0  0
   19.3030  -11.7750   -1.1770 C   0  0  0  0  0  0  0  0  0  0  0  0
   19.8680  -10.7220   -1.6450 C   0  0  1  0  0  0  0  0  0  0  0  0
   20.0940   -9.5740   -0.9670 O   0  0  0  0  0  0  0  0  0  0  0  0
   18.9040   -8.7850   -0.7760 C   0  0  0  0  0  0  0  0  0  0  0  0
   21.5610  -10.1340   -3.4860 O   0  0  0  0  0  0  0  0  0  0  0  0
   21.2860   -8.9230   -3.9140 C   0  0  0  0  0  0  0  0  0  0  0  0
   20.5460   -8.6090   -4.9550 O   0  0  0  0  0  0  0  0  0  0  0  0
   22.0330   -7.8100   -3.1890 C   0  0  2  0  0  0  0  0  0  0  0  0
   22.5520   -8.2690   -1.9030 O   0  0  0  0  0  0  0  0  0  0  0  0
   23.3920   -8.6490   -2.1110 H   0  0  0  0  0  0  0  0  0  0  0  0
   20.9640   -6.6370   -3.0580 C   0  0  0  0  0  0  0  0  0  0  0  0
   21.2050   -5.6220   -1.8810 C   0  0  0  0  0  0  0  0  0  0  0  0
   21.2480   -5.9760   -0.6790 O   0  0  0  0  0  0  0  0  0  0  0  0
   21.2750   -4.3980   -2.3660 O   0  0  0  0  0  0  0  0  0  0  0  0
   20.0630   -3.5590   -2.1420 C   0  0  0  0  0  0  0  0  0  0  0  0
   23.1320   -7.4750   -4.1570 C   0  0  0  0  0  0  0  0  0  0  0  0
   24.6360   -7.4440   -3.6040 C   0  0  0  0  0  0  0  0  0  0  0  0
   25.4430   -8.5140   -4.2670 C   0  0  0  0  0  0  0  0  0  0  0  0
   25.5570   -9.8650   -3.4850 C   0  0  0  0  0  0  0  0  0  0  0  0
   24.9500  -11.0690   -4.2220 C   0  0  0  0  0  0  0  0  0  0  0  0
   27.0110  -10.0710   -3.3020 C   0  0  0  0  0  0  0  0  0  0  0  0
   24.9360   -9.7570   -2.2030 O   0  0  0  0  0  0  0  0  0  0  0  0
   25.5860   -9.3760   -1.6170 H   0  0  0  0  0  0  0  0  0  0  0  0
  1 24  1  1  0  0  0
  1 21  1  0  0  0  0
  2  1  1  0  0  0  0
  2  3  1  0  0  0  0
  2 19  1  1  0  0  0
  3 11  2  0  0  0  0
  3  4  1  0  0  0  0
  4  5  2  0  0  0  0
  5  6  1  0  0  0  0
  6  7  1  0  0  0  0
  8  7  1  0  0  0  0
  9  5  1  0  0  0  0
  9  8  1  0  0  0  0
 10  9  2  0  0  0  0
 11 10  1  0  0  0  0
 12 13  1  0  0  0  0
 12 11  1  0  0  0  0
 13 14  1  0  0  0  0
 14 19  1  6  0  0  0
 14 16  1  0  0  0  0
 14 15  1  0  0  0  0
 17 16  1  0  0  0  0
 18 17  1  0  0  0  0
 19 18  1  6  0  0  0
 19 20  1  0  0  0  0
 21 20  1  0  0  0  0
 21 22  1  1  0  0  0
 22 23  1  0  0  0  0
 25 24  1  0  0  0  0
 25 27  1  0  0  0  0
 26 25  2  0  0  0  0
 27 35  1  6  0  0  0
 27 30  1  0  0  0  0
 27 28  1  0  0  0  0
 29 28  1  0  0  0  0
 30 31  1  0  0  0  0
 31 32  2  0  0  0  0
 33 34  1  0  0  0  0
 33 31  1  0  0  0  0
 35 36  1  0  0  0  0
 37 36  1  0  0  0  0
 37 38  1  0  0  0  0
 38 40  1  0  0  0  0
 38 41  1  0  0  0  0
 39 38  1  0  0  0  0
 41 42  1  0  0  0  0
M  END
>  <minimizedAffinity>
-6.7236681

$$$$
