
 OpenBabel12271915513D

 37 41  0  0  1  0  0  0  0  0999 V2000
   22.1270  -13.1920   -1.8430 C   0  0  2  0  0  0  0  0  0  0  0  0
   23.4170  -13.8720   -1.8070 O   0  0  0  0  0  0  0  0  0  0  0  0
   24.4090  -13.4210   -0.9920 C   0  0  0  0  0  0  0  0  0  0  0  0
   25.2380  -14.1970   -0.5660 O   0  0  0  0  0  0  0  0  0  0  0  0
   24.3820  -11.9890   -0.6730 C   0  0  1  0  0  0  0  0  0  0  0  0
   23.4520  -11.1170   -1.1460 C   0  0  0  0  0  0  0  0  0  0  0  0
   23.3480   -9.9220   -0.8900 O   0  0  0  0  0  0  0  0  0  0  0  0
   22.3480  -11.7240   -2.1000 C   0  0  0  0  0  0  0  0  0  0  0  0
   21.5060  -13.4340   -0.4820 C   0  0  0  0  0  0  0  0  0  0  0  0
   21.4650  -14.9140   -0.1150 C   0  0  0  0  0  0  0  0  0  0  0  0
   20.5600  -14.8540    1.0920 C   0  0  0  0  0  0  0  0  0  0  0  0
   19.3930  -14.0340    0.5620 C   0  0  0  0  0  0  0  0  0  0  0  0
   20.0950  -12.9190   -0.2020 C   0  0  0  0  0  0  0  0  0  0  0  0
   25.4240  -11.3800    0.2540 C   0  0  0  0  0  0  0  0  0  0  0  0
   26.6630  -10.8680   -0.4870 C   0  0  0  0  0  0  0  0  0  0  0  0
   26.6650  -10.2030   -1.6850 N   0  0  0  0  0  0  0  0  0  0  0  0
   27.9720   -9.9440   -1.9170 C   0  0  0  0  0  0  0  0  0  0  0  0
   28.6050   -9.2840   -2.9710 N   0  0  0  0  0  0  0  0  0  0  0  0
   29.8830   -9.1390   -2.9800 C   0  0  0  0  0  0  0  0  0  0  0  0
   30.6250   -8.4250   -4.1090 C   0  0  0  0  0  0  0  0  0  0  0  0
   30.7280   -9.6710   -1.8890 C   0  0  0  0  0  0  0  0  0  0  0  0
   30.1100  -10.2960   -0.8870 C   0  0  0  0  0  0  0  0  0  0  0  0
   30.8850  -10.8670    0.2470 C   0  0  0  0  0  0  0  0  0  0  0  0
   28.6970  -10.4340   -0.9060 N   0  0  0  0  0  0  0  0  0  0  0  0
   27.8750  -11.0110    0.0080 N   0  0  0  0  0  0  0  0  0  0  0  0
   21.3830  -13.8630   -3.0200 C   0  0  0  0  0  0  0  0  0  0  0  0
   20.8460  -15.2760   -2.8230 C   0  0  0  0  0  0  0  0  0  0  0  0
   17.3050  -14.0860   -3.2070 C   0  0  0  0  0  0  0  0  0  0  0  0
   16.6690  -15.1780   -3.6680 N   0  0  0  0  0  0  0  0  0  0  0  0
   17.4020  -16.3230   -3.8630 C   0  0  0  0  0  0  0  0  0  0  0  0
   18.7230  -16.3850   -3.6040 C   0  0  0  0  0  0  0  0  0  0  0  0
   19.3900  -15.2630   -3.1260 C   0  0  0  0  0  0  0  0  0  0  0  0
   18.6340  -14.0940   -2.9170 C   0  0  0  0  0  0  0  0  0  0  0  0
   17.4840  -11.7410   -2.5260 C   0  0  0  0  0  0  0  0  0  0  0  0
   16.5090  -12.8210   -2.9590 C   0  0  0  0  0  0  0  0  0  0  0  0
   16.6700  -17.5480   -4.3940 C   0  0  0  0  0  0  0  0  0  0  0  0
   17.6480  -18.4620   -5.0910 C   0  0  0  0  0  0  0  0  0  0  0  0
  1 26  1  6  0  0  0
  1  2  1  0  0  0  0
  1  9  1  0  0  0  0
  2  3  1  0  0  0  0
  3  5  1  0  0  0  0
  3  4  2  0  0  0  0
  5 14  1  1  0  0  0
  6  7  2  0  0  0  0
  6  5  1  0  0  0  0
  8  1  1  0  0  0  0
  8  6  1  0  0  0  0
  9 13  1  0  0  0  0
  9 10  1  0  0  0  0
 10 11  1  0  0  0  0
 12 11  1  0  0  0  0
 13 12  1  0  0  0  0
 15 25  2  0  0  0  0
 15 14  1  0  0  0  0
 16 15  2  0  0  0  0
 17 16  2  0  0  0  0
 17 24  1  0  0  0  0
 18 17  2  0  0  0  0
 19 18  2  0  0  0  0
 19 21  1  0  0  0  0
 20 19  1  0  0  0  0
 21 22  2  0  0  0  0
 22 23  1  0  0  0  0
 24 22  1  0  0  0  0
 24 25  1  0  0  0  0
 26 27  1  0  0  0  0
 28 35  1  0  0  0  0
 28 33  1  0  0  0  0
 29 28  2  0  0  0  0
 30 29  2  0  0  0  0
 30 31  1  0  0  0  0
 31 32  2  0  0  0  0
 32 33  1  0  0  0  0
 32 27  1  0  0  0  0
 35 34  1  0  0  0  0
 36 30  1  0  0  0  0
 37 36  1  0  0  0  0
M  END
>  <minimizedAffinity>
-9.65178871

$$$$

 OpenBabel12271915513D

 37 41  0  0  1  0  0  0  0  0999 V2000
   22.2620  -13.2420   -1.8670 C   0  0  2  0  0  0  0  0  0  0  0  0
   23.5200  -13.9790   -1.8220 O   0  0  0  0  0  0  0  0  0  0  0  0
   24.5220  -13.5790   -0.9940 C   0  0  0  0  0  0  0  0  0  0  0  0
   25.3110  -14.3930   -0.5650 O   0  0  0  0  0  0  0  0  0  0  0  0
   24.5560  -12.1490   -0.6670 C   0  0  1  0  0  0  0  0  0  0  0  0
   23.6710  -11.2330   -1.1440 C   0  0  0  0  0  0  0  0  0  0  0  0
   23.6180  -10.0360   -0.8820 O   0  0  0  0  0  0  0  0  0  0  0  0
   22.5510  -11.7840   -2.1130 C   0  0  0  0  0  0  0  0  0  0  0  0
   21.6170  -13.4630   -0.5140 C   0  0  0  0  0  0  0  0  0  0  0  0
   21.5030  -14.9430   -0.1570 C   0  0  0  0  0  0  0  0  0  0  0  0
   20.5900  -14.8480    1.0420 C   0  0  0  0  0  0  0  0  0  0  0  0
   19.4670  -13.9730    0.5050 C   0  0  0  0  0  0  0  0  0  0  0  0
   20.2280  -12.8860   -0.2450 C   0  0  0  0  0  0  0  0  0  0  0  0
   25.6140  -11.5920    0.2740 C   0  0  0  0  0  0  0  0  0  0  0  0
   26.7460  -10.8630   -0.4560 C   0  0  0  0  0  0  0  0  0  0  0  0
   26.9570  -10.8600   -1.8100 N   0  0  0  0  0  0  0  0  0  0  0  0
   28.0460  -10.0750   -1.9740 C   0  0  0  0  0  0  0  0  0  0  0  0
   28.7350   -9.6840   -3.1230 N   0  0  0  0  0  0  0  0  0  0  0  0
   29.7560   -8.9060   -3.0420 C   0  0  0  0  0  0  0  0  0  0  0  0
   30.5440   -8.4490   -4.2700 C   0  0  0  0  0  0  0  0  0  0  0  0
   30.2470   -8.4080   -1.7400 C   0  0  0  0  0  0  0  0  0  0  0  0
   29.5780   -8.7870   -0.6500 C   0  0  0  0  0  0  0  0  0  0  0  0
   30.0090   -8.3360    0.7010 C   0  0  0  0  0  0  0  0  0  0  0  0
   28.4510   -9.6410   -0.7750 N   0  0  0  0  0  0  0  0  0  0  0  0
   27.6280  -10.1280    0.1890 N   0  0  0  0  0  0  0  0  0  0  0  0
   21.5010  -13.8730   -3.0550 C   0  0  0  0  0  0  0  0  0  0  0  0
   20.8940  -15.2590   -2.8710 C   0  0  0  0  0  0  0  0  0  0  0  0
   17.3770  -16.1960   -3.7960 C   0  0  0  0  0  0  0  0  0  0  0  0
   16.7070  -15.0400   -3.6380 N   0  0  0  0  0  0  0  0  0  0  0  0
   17.4060  -13.9350   -3.2190 C   0  0  0  0  0  0  0  0  0  0  0  0
   18.7300  -13.9730   -2.9690 C   0  0  0  0  0  0  0  0  0  0  0  0
   19.4320  -15.1610   -3.1310 C   0  0  0  0  0  0  0  0  0  0  0  0
   18.7150  -16.2890   -3.5710 C   0  0  0  0  0  0  0  0  0  0  0  0
   17.6240  -18.3120   -5.0000 C   0  0  0  0  0  0  0  0  0  0  0  0
   16.6280  -17.4190   -4.2840 C   0  0  0  0  0  0  0  0  0  0  0  0
   16.6320  -12.6370   -3.0350 C   0  0  0  0  0  0  0  0  0  0  0  0
   17.4740  -11.6470   -2.2680 C   0  0  0  0  0  0  0  0  0  0  0  0
  1 26  1  6  0  0  0
  1  2  1  0  0  0  0
  1  9  1  0  0  0  0
  2  3  1  0  0  0  0
  3  5  1  0  0  0  0
  3  4  2  0  0  0  0
  5 14  1  1  0  0  0
  6  7  2  0  0  0  0
  6  5  1  0  0  0  0
  8  1  1  0  0  0  0
  8  6  1  0  0  0  0
  9 13  1  0  0  0  0
  9 10  1  0  0  0  0
 10 11  1  0  0  0  0
 12 11  1  0  0  0  0
 13 12  1  0  0  0  0
 15 25  2  0  0  0  0
 15 14  1  0  0  0  0
 16 15  2  0  0  0  0
 17 16  2  0  0  0  0
 17 24  1  0  0  0  0
 18 19  2  0  0  0  0
 18 17  2  0  0  0  0
 19 21  1  0  0  0  0
 20 19  1  0  0  0  0
 21 22  2  0  0  0  0
 22 23  1  0  0  0  0
 24 22  1  0  0  0  0
 24 25  1  0  0  0  0
 26 27  1  0  0  0  0
 28 29  2  0  0  0  0
 28 33  1  0  0  0  0
 29 30  2  0  0  0  0
 30 36  1  0  0  0  0
 30 31  1  0  0  0  0
 32 31  2  0  0  0  0
 32 27  1  0  0  0  0
 33 32  1  0  0  0  0
 34 35  1  0  0  0  0
 35 28  1  0  0  0  0
 36 37  1  0  0  0  0
M  END
>  <minimizedAffinity>
-9.25657272

$$$$

 OpenBabel12271915513D

 37 41  0  0  1  0  0  0  0  0999 V2000
   18.8740  -10.3210   -2.2120 C   0  0  2  0  0  0  0  0  0  0  0  0
   19.5480  -10.0640   -0.9450 O   0  0  0  0  0  0  0  0  0  0  0  0
   20.6420   -9.2570   -0.8990 C   0  0  0  0  0  0  0  0  0  0  0  0
   20.8950   -8.6390    0.1130 O   0  0  0  0  0  0  0  0  0  0  0  0
   21.4440   -9.1870   -2.1260 C   0  0  1  0  0  0  0  0  0  0  0  0
   21.1630   -9.8760   -3.2650 C   0  0  0  0  0  0  0  0  0  0  0  0
   21.7640   -9.8350   -4.3330 O   0  0  0  0  0  0  0  0  0  0  0  0
   19.8830  -10.8030   -3.2210 C   0  0  0  0  0  0  0  0  0  0  0  0
   18.2650   -8.9950   -2.6200 C   0  0  0  0  0  0  0  0  0  0  0  0
   17.0580   -8.6190   -1.7640 C   0  0  0  0  0  0  0  0  0  0  0  0
   16.5190   -7.4640   -2.5730 C   0  0  0  0  0  0  0  0  0  0  0  0
   16.4670   -8.0660   -3.9710 C   0  0  0  0  0  0  0  0  0  0  0  0
   17.8000   -8.7980   -4.0630 C   0  0  0  0  0  0  0  0  0  0  0  0
   22.6730   -8.2940   -2.2020 C   0  0  0  0  0  0  0  0  0  0  0  0
   23.9290   -8.9450   -1.6140 C   0  0  0  0  0  0  0  0  0  0  0  0
   25.1190   -8.3130   -1.3660 N   0  0  0  0  0  0  0  0  0  0  0  0
   25.9030   -9.2810   -0.8370 C   0  0  0  0  0  0  0  0  0  0  0  0
   27.2200   -9.2480   -0.3760 N   0  0  0  0  0  0  0  0  0  0  0  0
   27.7710  -10.3050    0.1080 C   0  0  0  0  0  0  0  0  0  0  0  0
   29.2090  -10.3220    0.6260 C   0  0  0  0  0  0  0  0  0  0  0  0
   27.0430  -11.5900    0.1840 C   0  0  0  0  0  0  0  0  0  0  0  0
   25.7850  -11.6060   -0.2570 C   0  0  0  0  0  0  0  0  0  0  0  0
   24.9830  -12.8590   -0.2220 C   0  0  0  0  0  0  0  0  0  0  0  0
   25.2050  -10.4200   -0.7800 N   0  0  0  0  0  0  0  0  0  0  0  0
   23.9520  -10.2130   -1.2600 N   0  0  0  0  0  0  0  0  0  0  0  0
   17.8470  -11.4250   -1.8720 C   0  0  0  0  0  0  0  0  0  0  0  0
   18.1580  -12.3710   -0.7190 C   0  0  0  0  0  0  0  0  0  0  0  0
   20.7220  -15.0150   -1.4530 C   0  0  0  0  0  0  0  0  0  0  0  0
   20.0740  -15.8340   -2.3010 N   0  0  0  0  0  0  0  0  0  0  0  0
   18.7790  -15.5280   -2.6400 C   0  0  0  0  0  0  0  0  0  0  0  0
   18.1470  -14.4390   -2.1570 C   0  0  0  0  0  0  0  0  0  0  0  0
   18.8080  -13.5860   -1.2810 C   0  0  0  0  0  0  0  0  0  0  0  0
   20.1380  -13.8970   -0.9440 C   0  0  0  0  0  0  0  0  0  0  0  0
   22.9610  -15.3710   -2.3780 C   0  0  0  0  0  0  0  0  0  0  0  0
   22.1600  -15.3220   -1.0890 C   0  0  0  0  0  0  0  0  0  0  0  0
   18.0570  -16.4690   -3.5930 C   0  0  0  0  0  0  0  0  0  0  0  0
   16.5870  -16.1270   -3.6290 C   0  0  0  0  0  0  0  0  0  0  0  0
  1 26  1  1  0  0  0
  1  2  1  0  0  0  0
  2  3  1  0  0  0  0
  3  4  2  0  0  0  0
  5 14  1  6  0  0  0
  5  3  1  0  0  0  0
  6  8  1  0  0  0  0
  6  5  1  0  0  0  0
  7  6  2  0  0  0  0
  8  1  1  0  0  0  0
  9  1  1  0  0  0  0
  9 10  1  0  0  0  0
 11 10  1  0  0  0  0
 12 11  1  0  0  0  0
 13 12  1  0  0  0  0
 13  9  1  0  0  0  0
 14 15  1  0  0  0  0
 15 16  2  0  0  0  0
 15 25  2  0  0  0  0
 16 17  2  0  0  0  0
 17 24  1  0  0  0  0
 17 18  2  0  0  0  0
 18 19  2  0  0  0  0
 19 21  1  0  0  0  0
 19 20  1  0  0  0  0
 22 23  1  0  0  0  0
 22 21  2  0  0  0  0
 24 22  1  0  0  0  0
 25 24  1  0  0  0  0
 26 27  1  0  0  0  0
 28 35  1  0  0  0  0
 28 33  1  0  0  0  0
 29 28  2  0  0  0  0
 30 29  2  0  0  0  0
 30 31  1  0  0  0  0
 31 32  2  0  0  0  0
 32 33  1  0  0  0  0
 32 27  1  0  0  0  0
 34 35  1  0  0  0  0
 36 30  1  0  0  0  0
 37 36  1  0  0  0  0
M  END
>  <minimizedAffinity>
-9.18721104

$$$$

 OpenBabel12271915513D

 37 41  0  0  1  0  0  0  0  0999 V2000
   18.8510  -10.3070   -2.1460 C   0  0  2  0  0  0  0  0  0  0  0  0
   19.5240  -10.0140   -0.8850 O   0  0  0  0  0  0  0  0  0  0  0  0
   20.6020   -9.1860   -0.8580 C   0  0  0  0  0  0  0  0  0  0  0  0
   20.8460   -8.5450    0.1420 O   0  0  0  0  0  0  0  0  0  0  0  0
   21.4000   -9.1240   -2.0880 C   0  0  1  0  0  0  0  0  0  0  0  0
   21.1280   -9.8380   -3.2140 C   0  0  0  0  0  0  0  0  0  0  0  0
   21.7270   -9.8050   -4.2830 O   0  0  0  0  0  0  0  0  0  0  0  0
   19.8670  -10.7880   -3.1490 C   0  0  0  0  0  0  0  0  0  0  0  0
   18.2160   -9.0010   -2.5760 C   0  0  0  0  0  0  0  0  0  0  0  0
   16.9850   -8.6490   -1.7460 C   0  0  0  0  0  0  0  0  0  0  0  0
   16.4300   -7.5160   -2.5740 C   0  0  0  0  0  0  0  0  0  0  0  0
   16.4200   -8.1290   -3.9670 C   0  0  0  0  0  0  0  0  0  0  0  0
   17.7730   -8.8280   -4.0290 C   0  0  0  0  0  0  0  0  0  0  0  0
   22.6110   -8.2080   -2.1840 C   0  0  0  0  0  0  0  0  0  0  0  0
   23.8850   -8.8330   -1.6080 C   0  0  0  0  0  0  0  0  0  0  0  0
   25.0700   -8.1810   -1.3850 N   0  0  0  0  0  0  0  0  0  0  0  0
   25.8760   -9.1300   -0.8580 C   0  0  0  0  0  0  0  0  0  0  0  0
   27.1990   -9.0720   -0.4180 N   0  0  0  0  0  0  0  0  0  0  0  0
   27.7740  -10.1150    0.0680 C   0  0  0  0  0  0  0  0  0  0  0  0
   29.2200  -10.1040    0.5650 C   0  0  0  0  0  0  0  0  0  0  0  0
   27.0680  -11.4100    0.1690 C   0  0  0  0  0  0  0  0  0  0  0  0
   25.8030  -11.4510   -0.2530 C   0  0  0  0  0  0  0  0  0  0  0  0
   25.0220  -12.7160   -0.1940 C   0  0  0  0  0  0  0  0  0  0  0  0
   25.1970  -10.2800   -0.7790 N   0  0  0  0  0  0  0  0  0  0  0  0
   23.9340  -10.0970   -1.2420 N   0  0  0  0  0  0  0  0  0  0  0  0
   17.8470  -11.4240   -1.7840 C   0  0  0  0  0  0  0  0  0  0  0  0
   18.1930  -12.3630   -0.6340 C   0  0  0  0  0  0  0  0  0  0  0  0
   18.8500  -15.4950   -2.5990 C   0  0  0  0  0  0  0  0  0  0  0  0
   20.1260  -15.7850   -2.2850 N   0  0  0  0  0  0  0  0  0  0  0  0
   20.7890  -14.9480   -1.4220 C   0  0  0  0  0  0  0  0  0  0  0  0
   20.2050  -13.8590   -0.8830 C   0  0  0  0  0  0  0  0  0  0  0  0
   18.8870  -13.5510   -1.2010 C   0  0  0  0  0  0  0  0  0  0  0  0
   18.2060  -14.4170   -2.0760 C   0  0  0  0  0  0  0  0  0  0  0  0
   16.6440  -15.9690   -3.5480 C   0  0  0  0  0  0  0  0  0  0  0  0
   18.0930  -16.4220   -3.5280 C   0  0  0  0  0  0  0  0  0  0  0  0
   22.2350  -15.2830   -1.0840 C   0  0  0  0  0  0  0  0  0  0  0  0
   23.0500  -15.3560   -2.3510 C   0  0  0  0  0  0  0  0  0  0  0  0
  1 26  1  1  0  0  0
  1  2  1  0  0  0  0
  2  3  1  0  0  0  0
  3  4  2  0  0  0  0
  5 14  1  6  0  0  0
  5  3  1  0  0  0  0
  6  8  1  0  0  0  0
  6  5  1  0  0  0  0
  7  6  2  0  0  0  0
  8  1  1  0  0  0  0
  9  1  1  0  0  0  0
  9 10  1  0  0  0  0
 11 10  1  0  0  0  0
 12 11  1  0  0  0  0
 13 12  1  0  0  0  0
 13  9  1  0  0  0  0
 14 15  1  0  0  0  0
 15 16  2  0  0  0  0
 15 25  2  0  0  0  0
 16 17  2  0  0  0  0
 17 24  1  0  0  0  0
 17 18  2  0  0  0  0
 18 19  2  0  0  0  0
 19 21  1  0  0  0  0
 19 20  1  0  0  0  0
 22 23  1  0  0  0  0
 22 21  2  0  0  0  0
 24 22  1  0  0  0  0
 25 24  1  0  0  0  0
 26 27  1  0  0  0  0
 28 29  2  0  0  0  0
 28 33  1  0  0  0  0
 29 30  2  0  0  0  0
 30 36  1  0  0  0  0
 30 31  1  0  0  0  0
 32 31  2  0  0  0  0
 32 27  1  0  0  0  0
 33 32  1  0  0  0  0
 34 35  1  0  0  0  0
 35 28  1  0  0  0  0
 37 36  1  0  0  0  0
M  END
>  <minimizedAffinity>
-9.13604546

$$$$

 OpenBabel12271915513D

 37 41  0  0  1  0  0  0  0  0999 V2000
   20.6450   -8.9590   -1.2020 C   0  0  2  0  0  0  0  0  0  0  0  0
   19.5360   -8.9120   -0.2550 O   0  0  0  0  0  0  0  0  0  0  0  0
   18.4140   -9.6490   -0.4730 C   0  0  0  0  0  0  0  0  0  0  0  0
   17.7460  -10.0250    0.4670 O   0  0  0  0  0  0  0  0  0  0  0  0
   18.1030   -9.9530   -1.8750 C   0  0  1  0  0  0  0  0  0  0  0  0
   18.8510   -9.5370   -2.9320 C   0  0  0  0  0  0  0  0  0  0  0  0
   18.6720   -9.7850   -4.1190 O   0  0  0  0  0  0  0  0  0  0  0  0
   20.1260   -8.6700   -2.5860 C   0  0  0  0  0  0  0  0  0  0  0  0
   21.2040  -10.3640   -1.0960 C   0  0  0  0  0  0  0  0  0  0  0  0
   22.3770  -10.4530   -0.1240 C   0  0  0  0  0  0  0  0  0  0  0  0
   22.8820  -11.8370   -0.4570 C   0  0  0  0  0  0  0  0  0  0  0  0
   22.9840  -11.7700   -1.9740 C   0  0  0  0  0  0  0  0  0  0  0  0
   21.6860  -11.0730   -2.3610 C   0  0  0  0  0  0  0  0  0  0  0  0
   16.8890  -10.7960   -2.2370 C   0  0  0  0  0  0  0  0  0  0  0  0
   17.2430  -12.2480   -2.5710 C   0  0  0  0  0  0  0  0  0  0  0  0
   16.5020  -13.0950   -3.3530 N   0  0  0  0  0  0  0  0  0  0  0  0
   17.2200  -14.2420   -3.3700 C   0  0  0  0  0  0  0  0  0  0  0  0
   16.9870  -15.4630   -4.0040 N   0  0  0  0  0  0  0  0  0  0  0  0
   17.8270  -16.4310   -3.8900 C   0  0  0  0  0  0  0  0  0  0  0  0
   17.6190  -17.7870   -4.5640 C   0  0  0  0  0  0  0  0  0  0  0  0
   19.0570  -16.2950   -3.0800 C   0  0  0  0  0  0  0  0  0  0  0  0
   19.2680  -15.1220   -2.4830 C   0  0  0  0  0  0  0  0  0  0  0  0
   20.4770  -14.9030   -1.6440 C   0  0  0  0  0  0  0  0  0  0  0  0
   18.3230  -14.0730   -2.6330 N   0  0  0  0  0  0  0  0  0  0  0  0
   18.3500  -12.8110   -2.1330 N   0  0  0  0  0  0  0  0  0  0  0  0
   21.6000   -7.8470   -0.7150 C   0  0  0  0  0  0  0  0  0  0  0  0
   22.3880   -7.0630   -1.7580 C   0  0  0  0  0  0  0  0  0  0  0  0
   24.8830   -9.1170   -3.6720 C   0  0  0  0  0  0  0  0  0  0  0  0
   25.8670   -9.3050   -2.7740 N   0  0  0  0  0  0  0  0  0  0  0  0
   25.7240   -8.7530   -1.5250 C   0  0  0  0  0  0  0  0  0  0  0  0
   24.6350   -8.0400   -1.1740 C   0  0  0  0  0  0  0  0  0  0  0  0
   23.6110   -7.8400   -2.0930 C   0  0  0  0  0  0  0  0  0  0  0  0
   23.7560   -8.4160   -3.3680 C   0  0  0  0  0  0  0  0  0  0  0  0
   25.4220  -11.1890   -4.8560 C   0  0  0  0  0  0  0  0  0  0  0  0
   25.0100   -9.7410   -5.0460 C   0  0  0  0  0  0  0  0  0  0  0  0
   26.8510   -8.9670   -0.5240 C   0  0  0  0  0  0  0  0  0  0  0  0
   26.8800  -10.4120   -0.0930 C   0  0  0  0  0  0  0  0  0  0  0  0
  1  9  1  0  0  0  0
  1 26  1  1  0  0  0
  1  2  1  0  0  0  0
  3  2  1  0  0  0  0
  3  4  2  0  0  0  0
  5 14  1  1  0  0  0
  5  3  1  0  0  0  0
  6  8  1  0  0  0  0
  6  5  1  0  0  0  0
  7  6  2  0  0  0  0
  8  1  1  0  0  0  0
  9 10  1  0  0  0  0
 11 10  1  0  0  0  0
 12 11  1  0  0  0  0
 13 12  1  0  0  0  0
 13  9  1  0  0  0  0
 15 14  1  0  0  0  0
 15 25  2  0  0  0  0
 16 15  2  0  0  0  0
 17 16  2  0  0  0  0
 17 24  1  0  0  0  0
 18 19  2  0  0  0  0
 18 17  2  0  0  0  0
 19 21  1  0  0  0  0
 20 19  1  0  0  0  0
 21 22  2  0  0  0  0
 22 23  1  0  0  0  0
 24 22  1  0  0  0  0
 24 25  1  0  0  0  0
 27 26  1  0  0  0  0
 28 33  1  0  0  0  0
 28 29  2  0  0  0  0
 29 30  2  0  0  0  0
 30 31  1  0  0  0  0
 30 36  1  0  0  0  0
 32 27  1  0  0  0  0
 32 31  2  0  0  0  0
 33 32  1  0  0  0  0
 35 34  1  0  0  0  0
 35 28  1  0  0  0  0
 36 37  1  0  0  0  0
M  END
>  <minimizedAffinity>
-9.05065346

$$$$

 OpenBabel12271915513D

 37 41  0  0  1  0  0  0  0  0999 V2000
   21.8950  -12.1680   -1.4220 C   0  0  2  0  0  0  0  0  0  0  0  0
   22.4070  -11.6570   -0.1560 O   0  0  0  0  0  0  0  0  0  0  0  0
   23.3660  -10.6930   -0.1410 C   0  0  0  0  0  0  0  0  0  0  0  0
   23.4350   -9.9240    0.7940 O   0  0  0  0  0  0  0  0  0  0  0  0
   24.2590  -10.6530   -1.3050 C   0  0  1  0  0  0  0  0  0  0  0  0
   24.1830  -11.5110   -2.3580 C   0  0  0  0  0  0  0  0  0  0  0  0
   24.8680  -11.5090   -3.3750 O   0  0  0  0  0  0  0  0  0  0  0  0
   23.0500  -12.6100   -2.2820 C   0  0  0  0  0  0  0  0  0  0  0  0
   21.1430  -11.0110   -2.0480 C   0  0  0  0  0  0  0  0  0  0  0  0
   19.8280  -10.7140   -1.3320 C   0  0  0  0  0  0  0  0  0  0  0  0
   19.2030   -9.7650   -2.3270 C   0  0  0  0  0  0  0  0  0  0  0  0
   19.3530  -10.5410   -3.6280 C   0  0  0  0  0  0  0  0  0  0  0  0
   20.7780  -11.0710   -3.5310 C   0  0  0  0  0  0  0  0  0  0  0  0
   25.3500   -9.5980   -1.4120 C   0  0  0  0  0  0  0  0  0  0  0  0
   26.6310   -9.9780   -0.6630 C   0  0  0  0  0  0  0  0  0  0  0  0
   26.9470  -11.2270   -0.1960 N   0  0  0  0  0  0  0  0  0  0  0  0
   28.1670  -11.0700    0.3660 C   0  0  0  0  0  0  0  0  0  0  0  0
   29.0130  -11.9830    0.9990 N   0  0  0  0  0  0  0  0  0  0  0  0
   30.1550  -11.6090    1.4560 C   0  0  0  0  0  0  0  0  0  0  0  0
   31.1170  -12.5690    2.1560 C   0  0  0  0  0  0  0  0  0  0  0  0
   30.6120  -10.2080    1.3430 C   0  0  0  0  0  0  0  0  0  0  0  0
   29.7960   -9.3470    0.7340 C   0  0  0  0  0  0  0  0  0  0  0  0
   30.1760   -7.9160    0.5830 C   0  0  0  0  0  0  0  0  0  0  0  0
   28.5440   -9.7940    0.2350 N   0  0  0  0  0  0  0  0  0  0  0  0
   27.5810   -9.0990   -0.4240 N   0  0  0  0  0  0  0  0  0  0  0  0
   21.0090  -13.3660   -1.0120 C   0  0  0  0  0  0  0  0  0  0  0  0
   21.1070  -14.6510   -1.8270 C   0  0  0  0  0  0  0  0  0  0  0  0
   17.5870  -14.1260   -3.0250 C   0  0  0  0  0  0  0  0  0  0  0  0
   17.3030  -15.2880   -3.6410 N   0  0  0  0  0  0  0  0  0  0  0  0
   18.2720  -16.2610   -3.6730 C   0  0  0  0  0  0  0  0  0  0  0  0
   19.4830  -16.0890   -3.1070 C   0  0  0  0  0  0  0  0  0  0  0  0
   19.7870  -14.8930   -2.4680 C   0  0  0  0  0  0  0  0  0  0  0  0
   18.7880  -13.9020   -2.4270 C   0  0  0  0  0  0  0  0  0  0  0  0
   15.1970  -13.6920   -3.3280 C   0  0  0  0  0  0  0  0  0  0  0  0
   16.5220  -13.0510   -2.9560 C   0  0  0  0  0  0  0  0  0  0  0  0
   17.9390  -17.5670   -4.3810 C   0  0  0  0  0  0  0  0  0  0  0  0
   16.4750  -17.5870   -4.7480 C   0  0  0  0  0  0  0  0  0  0  0  0
  1 26  1  1  0  0  0
  1  2  1  0  0  0  0
  2  3  1  0  0  0  0
  3  4  2  0  0  0  0
  5 14  1  6  0  0  0
  5  3  1  0  0  0  0
  6  8  1  0  0  0  0
  6  5  1  0  0  0  0
  7  6  2  0  0  0  0
  8  1  1  0  0  0  0
  9  1  1  0  0  0  0
  9 10  1  0  0  0  0
 11 10  1  0  0  0  0
 12 13  1  0  0  0  0
 12 11  1  0  0  0  0
 13  9  1  0  0  0  0
 14 15  1  0  0  0  0
 15 25  2  0  0  0  0
 15 16  2  0  0  0  0
 16 17  2  0  0  0  0
 17 18  2  0  0  0  0
 18 19  2  0  0  0  0
 19 20  1  0  0  0  0
 21 19  1  0  0  0  0
 22 21  2  0  0  0  0
 23 22  1  0  0  0  0
 24 17  1  0  0  0  0
 24 22  1  0  0  0  0
 25 24  1  0  0  0  0
 27 26  1  0  0  0  0
 28 35  1  0  0  0  0
 28 33  1  0  0  0  0
 29 28  2  0  0  0  0
 30 29  2  0  0  0  0
 30 31  1  0  0  0  0
 31 32  2  0  0  0  0
 32 33  1  0  0  0  0
 32 27  1  0  0  0  0
 34 35  1  0  0  0  0
 36 30  1  0  0  0  0
 37 36  1  0  0  0  0
M  END
>  <minimizedAffinity>
-9.03046799

$$$$

 OpenBabel12271915513D

 37 41  0  0  1  0  0  0  0  0999 V2000
   23.1430  -10.1220   -2.3270 C   0  0  2  0  0  0  0  0  0  0  0  0
   23.5810  -10.4370   -3.6820 O   0  0  0  0  0  0  0  0  0  0  0  0
   24.7910  -10.0050   -4.1310 C   0  0  0  0  0  0  0  0  0  0  0  0
   25.3780  -10.6360   -4.9840 O   0  0  0  0  0  0  0  0  0  0  0  0
   25.3090   -8.7800   -3.5120 C   0  0  1  0  0  0  0  0  0  0  0  0
   24.6560   -8.0720   -2.5510 C   0  0  0  0  0  0  0  0  0  0  0  0
   25.0470   -7.0670   -1.9670 O   0  0  0  0  0  0  0  0  0  0  0  0
   23.2490   -8.6360   -2.1050 C   0  0  0  0  0  0  0  0  0  0  0  0
   24.0750  -10.8930   -1.4140 C   0  0  0  0  0  0  0  0  0  0  0  0
   24.3730  -12.2960   -1.9340 C   0  0  0  0  0  0  0  0  0  0  0  0
   25.0410  -12.8850   -0.7150 C   0  0  0  0  0  0  0  0  0  0  0  0
   24.0460  -12.5350    0.3820 C   0  0  0  0  0  0  0  0  0  0  0  0
   23.6900  -11.0900    0.0520 C   0  0  0  0  0  0  0  0  0  0  0  0
   26.6660   -8.2210   -3.9130 C   0  0  0  0  0  0  0  0  0  0  0  0
   27.8210   -8.7880   -3.0820 C   0  0  0  0  0  0  0  0  0  0  0  0
   29.1550   -8.5740   -3.3100 N   0  0  0  0  0  0  0  0  0  0  0  0
   29.7740   -9.2530   -2.3170 C   0  0  0  0  0  0  0  0  0  0  0  0
   31.1270   -9.4050   -2.0100 N   0  0  0  0  0  0  0  0  0  0  0  0
   31.4940  -10.0980   -0.9910 C   0  0  0  0  0  0  0  0  0  0  0  0
   32.9620  -10.2950   -0.6120 C   0  0  0  0  0  0  0  0  0  0  0  0
   30.5070  -10.7670   -0.1160 C   0  0  0  0  0  0  0  0  0  0  0  0
   29.2180  -10.6110   -0.4180 C   0  0  0  0  0  0  0  0  0  0  0  0
   28.1600  -11.2560    0.4060 C   0  0  0  0  0  0  0  0  0  0  0  0
   28.8470   -9.8350   -1.5480 N   0  0  0  0  0  0  0  0  0  0  0  0
   27.6090   -9.5370   -2.0190 N   0  0  0  0  0  0  0  0  0  0  0  0
   21.6710  -10.5920   -2.2920 C   0  0  0  0  0  0  0  0  0  0  0  0
   21.1470  -11.4150   -3.4630 C   0  0  0  0  0  0  0  0  0  0  0  0
   20.6110  -14.4140   -1.2660 C   0  0  0  0  0  0  0  0  0  0  0  0
   19.5890  -15.0490   -1.8690 N   0  0  0  0  0  0  0  0  0  0  0  0
   19.0590  -14.4930   -3.0070 C   0  0  0  0  0  0  0  0  0  0  0  0
   19.5310  -13.3460   -3.5360 C   0  0  0  0  0  0  0  0  0  0  0  0
   20.5870  -12.6830   -2.9220 C   0  0  0  0  0  0  0  0  0  0  0  0
   21.1350  -13.2610   -1.7620 C   0  0  0  0  0  0  0  0  0  0  0  0
   20.4460  -14.5190    1.1730 C   0  0  0  0  0  0  0  0  0  0  0  0
   21.2280  -15.0260   -0.0250 C   0  0  0  0  0  0  0  0  0  0  0  0
   17.8970  -15.2180   -3.6720 C   0  0  0  0  0  0  0  0  0  0  0  0
   18.2410  -16.6770   -3.8480 C   0  0  0  0  0  0  0  0  0  0  0  0
  1 26  1  1  0  0  0
  1  8  1  0  0  0  0
  1  9  1  0  0  0  0
  2  1  1  0  0  0  0
  3  2  1  0  0  0  0
  3  5  1  0  0  0  0
  4  3  2  0  0  0  0
  5 14  1  1  0  0  0
  5  6  1  0  0  0  0
  6  8  1  0  0  0  0
  6  7  2  0  0  0  0
  9 13  1  0  0  0  0
 10  9  1  0  0  0  0
 10 11  1  0  0  0  0
 11 12  1  0  0  0  0
 13 12  1  0  0  0  0
 14 15  1  0  0  0  0
 15 25  2  0  0  0  0
 16 15  2  0  0  0  0
 16 17  2  0  0  0  0
 17 18  2  0  0  0  0
 17 24  1  0  0  0  0
 18 19  2  0  0  0  0
 19 20  1  0  0  0  0
 19 21  1  0  0  0  0
 22 21  2  0  0  0  0
 22 23  1  0  0  0  0
 24 22  1  0  0  0  0
 25 24  1  0  0  0  0
 27 32  1  0  0  0  0
 27 26  1  0  0  0  0
 28 35  1  0  0  0  0
 29 28  2  0  0  0  0
 30 29  2  0  0  0  0
 31 30  1  0  0  0  0
 31 32  2  0  0  0  0
 32 33  1  0  0  0  0
 33 28  1  0  0  0  0
 35 34  1  0  0  0  0
 36 30  1  0  0  0  0
 37 36  1  0  0  0  0
M  END
>  <minimizedAffinity>
-8.91879177

$$$$

 OpenBabel12271915513D

 37 41  0  0  1  0  0  0  0  0999 V2000
   22.5180  -10.0800   -2.7650 C   0  0  2  0  0  0  0  0  0  0  0  0
   23.0500  -10.2920   -4.1060 O   0  0  0  0  0  0  0  0  0  0  0  0
   24.2540   -9.7660   -4.4590 C   0  0  0  0  0  0  0  0  0  0  0  0
   24.9250  -10.3110   -5.3090 O   0  0  0  0  0  0  0  0  0  0  0  0
   24.6600   -8.5490   -3.7470 C   0  0  1  0  0  0  0  0  0  0  0  0
   23.9120   -7.9360   -2.7900 C   0  0  0  0  0  0  0  0  0  0  0  0
   24.2070   -6.9440   -2.1320 O   0  0  0  0  0  0  0  0  0  0  0  0
   22.5200   -8.6060   -2.4580 C   0  0  0  0  0  0  0  0  0  0  0  0
   23.4430  -10.8460   -1.8400 C   0  0  0  0  0  0  0  0  0  0  0  0
   23.7810  -12.2360   -2.3710 C   0  0  0  0  0  0  0  0  0  0  0  0
   24.4320  -12.8280   -1.1450 C   0  0  0  0  0  0  0  0  0  0  0  0
   23.4050  -12.5120   -0.0670 C   0  0  0  0  0  0  0  0  0  0  0  0
   23.0280  -11.0700   -0.3860 C   0  0  0  0  0  0  0  0  0  0  0  0
   26.0010   -7.8900   -4.0360 C   0  0  0  0  0  0  0  0  0  0  0  0
   27.1590   -8.5060   -3.2460 C   0  0  0  0  0  0  0  0  0  0  0  0
   28.4920   -8.3260   -3.5050 N   0  0  0  0  0  0  0  0  0  0  0  0
   29.1160   -9.0420   -2.5410 C   0  0  0  0  0  0  0  0  0  0  0  0
   30.4710   -9.2390   -2.2720 N   0  0  0  0  0  0  0  0  0  0  0  0
   30.8430   -9.9620   -1.2760 C   0  0  0  0  0  0  0  0  0  0  0  0
   32.3140  -10.2080   -0.9390 C   0  0  0  0  0  0  0  0  0  0  0  0
   29.8600  -10.6190   -0.3880 C   0  0  0  0  0  0  0  0  0  0  0  0
   28.5680  -10.4200   -0.6540 C   0  0  0  0  0  0  0  0  0  0  0  0
   27.5130  -11.0490    0.1850 C   0  0  0  0  0  0  0  0  0  0  0  0
   28.1920   -9.6110   -1.7590 N   0  0  0  0  0  0  0  0  0  0  0  0
   26.9520   -9.2690   -2.1930 N   0  0  0  0  0  0  0  0  0  0  0  0
   21.0790  -10.6370   -2.8410 C   0  0  0  0  0  0  0  0  0  0  0  0
   20.7930  -11.7710   -3.8200 C   0  0  0  0  0  0  0  0  0  0  0  0
   19.1690  -15.0640   -3.0300 C   0  0  0  0  0  0  0  0  0  0  0  0
   19.0710  -15.0360   -1.6880 N   0  0  0  0  0  0  0  0  0  0  0  0
   19.5440  -13.9310   -1.0240 C   0  0  0  0  0  0  0  0  0  0  0  0
   20.0920  -12.8830   -1.6710 C   0  0  0  0  0  0  0  0  0  0  0  0
   20.1980  -12.9000   -3.0570 C   0  0  0  0  0  0  0  0  0  0  0  0
   19.7020  -14.0290   -3.7350 C   0  0  0  0  0  0  0  0  0  0  0  0
   17.1140  -16.2110   -3.7010 C   0  0  0  0  0  0  0  0  0  0  0  0
   18.6280  -16.2620   -3.7830 C   0  0  0  0  0  0  0  0  0  0  0  0
   19.4350  -13.9190    0.4940 C   0  0  0  0  0  0  0  0  0  0  0  0
   20.6100  -14.6510    1.0940 C   0  0  0  0  0  0  0  0  0  0  0  0
  1 26  1  1  0  0  0
  1  8  1  0  0  0  0
  1  9  1  0  0  0  0
  2  1  1  0  0  0  0
  3  2  1  0  0  0  0
  3  5  1  0  0  0  0
  4  3  2  0  0  0  0
  5 14  1  1  0  0  0
  5  6  1  0  0  0  0
  6  8  1  0  0  0  0
  6  7  2  0  0  0  0
  9 13  1  0  0  0  0
 10  9  1  0  0  0  0
 10 11  1  0  0  0  0
 11 12  1  0  0  0  0
 13 12  1  0  0  0  0
 14 15  1  0  0  0  0
 15 25  2  0  0  0  0
 16 15  2  0  0  0  0
 16 17  2  0  0  0  0
 17 18  2  0  0  0  0
 17 24  1  0  0  0  0
 18 19  2  0  0  0  0
 19 20  1  0  0  0  0
 19 21  1  0  0  0  0
 22 21  2  0  0  0  0
 22 23  1  0  0  0  0
 24 22  1  0  0  0  0
 25 24  1  0  0  0  0
 27 32  1  0  0  0  0
 27 26  1  0  0  0  0
 28 29  2  0  0  0  0
 29 30  2  0  0  0  0
 30 36  1  0  0  0  0
 31 30  1  0  0  0  0
 32 31  2  0  0  0  0
 33 32  1  0  0  0  0
 33 28  1  0  0  0  0
 35 34  1  0  0  0  0
 35 28  1  0  0  0  0
 36 37  1  0  0  0  0
M  END
>  <minimizedAffinity>
-8.8985157

$$$$

 OpenBabel12271915513D

 37 41  0  0  1  0  0  0  0  0999 V2000
   23.4510   -9.2250   -1.5510 C   0  0  2  0  0  0  0  0  0  0  0  0
   22.4780   -8.6050   -0.6580 O   0  0  0  0  0  0  0  0  0  0  0  0
   21.1620   -8.9420   -0.7360 C   0  0  0  0  0  0  0  0  0  0  0  0
   20.4600   -8.8620    0.2500 O   0  0  0  0  0  0  0  0  0  0  0  0
   20.6900   -9.4040   -2.0460 C   0  0  1  0  0  0  0  0  0  0  0  0
   21.4750   -9.4990   -3.1530 C   0  0  0  0  0  0  0  0  0  0  0  0
   21.1560   -9.9110   -4.2630 O   0  0  0  0  0  0  0  0  0  0  0  0
   22.9850   -9.0700   -2.9750 C   0  0  0  0  0  0  0  0  0  0  0  0
   23.5060  -10.6820   -1.1370 C   0  0  0  0  0  0  0  0  0  0  0  0
   24.0970  -10.8700    0.2580 C   0  0  0  0  0  0  0  0  0  0  0  0
   24.2920  -12.3670    0.2550 C   0  0  0  0  0  0  0  0  0  0  0  0
   25.0280  -12.5780   -1.0610 C   0  0  0  0  0  0  0  0  0  0  0  0
   24.2530  -11.6820   -2.0190 C   0  0  0  0  0  0  0  0  0  0  0  0
   19.2440   -9.8360   -2.2430 C   0  0  0  0  0  0  0  0  0  0  0  0
   19.0900  -11.3450   -2.4560 C   0  0  0  0  0  0  0  0  0  0  0  0
   18.2280  -11.9470   -3.3340 N   0  0  0  0  0  0  0  0  0  0  0  0
   18.4680  -13.2690   -3.1780 C   0  0  0  0  0  0  0  0  0  0  0  0
   17.9100  -14.3860   -3.8030 N   0  0  0  0  0  0  0  0  0  0  0  0
   18.3060  -15.5710   -3.5020 C   0  0  0  0  0  0  0  0  0  0  0  0
   17.7280  -16.8260   -4.1570 C   0  0  0  0  0  0  0  0  0  0  0  0
   19.3510  -15.8010   -2.4810 C   0  0  0  0  0  0  0  0  0  0  0  0
   19.8780  -14.7260   -1.8940 C   0  0  0  0  0  0  0  0  0  0  0  0
   20.9300  -14.8670   -0.8510 C   0  0  0  0  0  0  0  0  0  0  0  0
   19.4210  -13.4300   -2.2540 N   0  0  0  0  0  0  0  0  0  0  0  0
   19.8270  -12.2170   -1.8000 N   0  0  0  0  0  0  0  0  0  0  0  0
   24.7520   -8.4320   -1.2950 C   0  0  0  0  0  0  0  0  0  0  0  0
   25.6780   -8.1600   -2.4750 C   0  0  0  0  0  0  0  0  0  0  0  0
   29.3050   -9.0980   -2.7400 C   0  0  0  0  0  0  0  0  0  0  0  0
   29.4830   -9.9100   -1.6820 N   0  0  0  0  0  0  0  0  0  0  0  0
   28.4080  -10.1570   -0.8630 C   0  0  0  0  0  0  0  0  0  0  0  0
   27.1930   -9.6190   -1.0890 C   0  0  0  0  0  0  0  0  0  0  0  0
   26.9980   -8.7790   -2.1790 C   0  0  0  0  0  0  0  0  0  0  0  0
   28.0980   -8.5370   -3.0220 C   0  0  0  0  0  0  0  0  0  0  0  0
   30.2120   -7.5140   -4.3700 C   0  0  0  0  0  0  0  0  0  0  0  0
   30.4710   -8.8350   -3.6690 C   0  0  0  0  0  0  0  0  0  0  0  0
   28.6280  -11.0710    0.3350 C   0  0  0  0  0  0  0  0  0  0  0  0
   30.1070  -11.2620    0.5630 C   0  0  0  0  0  0  0  0  0  0  0  0
  1 26  1  1  0  0  0
  1  9  1  0  0  0  0
  1  2  1  0  0  0  0
  3  2  1  0  0  0  0
  3  4  2  0  0  0  0
  5 14  1  1  0  0  0
  5  3  1  0  0  0  0
  6  8  1  0  0  0  0
  6  5  1  0  0  0  0
  7  6  2  0  0  0  0
  8  1  1  0  0  0  0
  9 10  1  0  0  0  0
 11 10  1  0  0  0  0
 12 11  1  0  0  0  0
 13  9  1  0  0  0  0
 13 12  1  0  0  0  0
 15 14  1  0  0  0  0
 15 25  2  0  0  0  0
 16 17  2  0  0  0  0
 16 15  2  0  0  0  0
 17 24  1  0  0  0  0
 18 19  2  0  0  0  0
 18 17  2  0  0  0  0
 19 21  1  0  0  0  0
 20 19  1  0  0  0  0
 21 22  2  0  0  0  0
 22 23  1  0  0  0  0
 24 22  1  0  0  0  0
 24 25  1  0  0  0  0
 27 32  1  0  0  0  0
 27 26  1  0  0  0  0
 28 29  2  0  0  0  0
 29 30  2  0  0  0  0
 30 36  1  0  0  0  0
 31 30  1  0  0  0  0
 32 31  2  0  0  0  0
 33 28  1  0  0  0  0
 33 32  1  0  0  0  0
 34 35  1  0  0  0  0
 35 28  1  0  0  0  0
 36 37  1  0  0  0  0
M  END
>  <minimizedAffinity>
-8.70293903

$$$$
