
 OpenBabel12271915523D

 27 29  0  0  1  0  0  0  0  0999 V2000
   19.7420  -13.7810   -0.8130 C   0  0  1  0  0  0  0  0  0  0  0  0
   21.0360  -14.4430   -0.6210 N   0  0  0  0  0  0  0  0  0  0  0  0
   21.4020  -14.8650   -1.5390 H   0  0  0  0  0  0  0  0  0  0  0  0
   21.9480  -13.3850   -0.3710 O   0  0  0  0  0  0  0  0  0  0  0  0
   21.5960  -12.2550   -1.1630 C   0  0  2  0  0  0  0  0  0  0  0  0
   22.3500  -12.4090   -2.5260 C   0  0  1  0  0  0  0  0  0  0  0  0
   22.3750  -11.0850   -3.3620 C   0  0  2  0  0  0  0  0  0  0  0  0
   22.1320   -9.8030   -2.4930 C   0  0  1  0  0  0  0  0  0  0  0  0
   22.6800  -10.0590   -1.0740 C   0  0  2  0  0  0  0  0  0  0  0  0
   21.9040  -11.0790   -0.4210 O   0  0  0  0  0  0  0  0  0  0  0  0
   20.0900  -12.3690   -1.3210 C   0  0  0  0  0  0  0  0  0  0  0  0
   18.7540  -14.5590   -1.6560 C   0  0  0  0  0  0  0  0  0  0  0  0
   19.2580  -15.5890   -2.5100 C   0  0  0  0  0  0  0  0  0  0  0  0
   18.3950  -16.2990   -3.3650 C   0  0  0  0  0  0  0  0  0  0  0  0
   17.0360  -16.0230   -3.3880 C   0  0  0  0  0  0  0  0  0  0  0  0
   16.1090  -16.8010   -4.2730 C   0  0  0  0  0  0  0  0  0  0  0  0
   16.5270  -15.0620   -2.5140 C   0  0  0  0  0  0  0  0  0  0  0  0
   17.3740  -14.3540   -1.6420 C   0  0  0  0  0  0  0  0  0  0  0  0
   21.4650  -10.9720   -4.4440 O   0  0  0  0  0  0  0  0  0  0  0  0
   21.1500  -11.8540   -4.7170 H   0  0  0  0  0  0  0  0  0  0  0  0
   23.7300  -12.7670   -2.3120 O   0  0  0  0  0  0  0  0  0  0  0  0
   23.7430  -13.2940   -1.4670 H   0  0  0  0  0  0  0  0  0  0  0  0
   22.7640   -8.6600   -3.1080 O   0  0  0  0  0  0  0  0  0  0  0  0
   22.6380   -8.8020   -4.1060 H   0  0  0  0  0  0  0  0  0  0  0  0
   22.8100   -8.8410   -0.1220 C   0  0  0  0  0  0  0  0  0  0  0  0
   23.7340   -7.8660   -0.5470 O   0  0  0  0  0  0  0  0  0  0  0  0
   23.9730   -8.1070   -1.5130 H   0  0  0  0  0  0  0  0  0  0  0  0
  1 12  1  6  0  0  0
  1  2  1  0  0  0  0
  2  4  1  0  0  0  0
  3  2  1  0  0  0  0
  5 11  1  6  0  0  0
  5 10  1  0  0  0  0
  5  4  1  0  0  0  0
  6 21  1  0  0  0  0
  6  5  1  1  0  0  0
  7 19  1  6  0  0  0
  7  6  1  0  0  0  0
  7  8  1  0  0  0  0
  8 23  1  6  0  0  0
  8  9  1  0  0  0  0
  9 10  1  0  0  0  0
  9 25  1  1  0  0  0
 11  1  1  0  0  0  0
 12 18  1  0  0  0  0
 13 12  2  0  0  0  0
 14 13  1  0  0  0  0
 15 14  2  0  0  0  0
 15 17  1  0  0  0  0
 16 15  1  0  0  0  0
 17 18  2  0  0  0  0
 20 19  1  0  0  0  0
 21 22  1  0  0  0  0
 24 23  1  0  0  0  0
 26 25  1  0  0  0  0
 27 26  1  0  0  0  0
M  END
>  <minimizedAffinity>
-8.23154926

$$$$

 OpenBabel12271915523D

 27 29  0  0  1  0  0  0  0  0999 V2000
   22.8840  -14.2270   -0.9300 C   0  0  1  0  0  0  0  0  0  0  0  0
   22.1070  -14.5450    0.2720 N   0  0  0  0  0  0  0  0  0  0  0  0
   21.7190  -13.6560    0.7360 H   0  0  0  0  0  0  0  0  0  0  0  0
   20.9380  -15.1860   -0.2130 O   0  0  0  0  0  0  0  0  0  0  0  0
   20.5390  -14.5850   -1.4410 C   0  0  2  0  0  0  0  0  0  0  0  0
   19.5790  -13.4050   -1.0710 C   0  0  1  0  0  0  0  0  0  0  0  0
   18.7600  -12.8780   -2.2960 C   0  0  2  0  0  0  0  0  0  0  0  0
   18.6610  -13.9190   -3.4650 C   0  0  1  0  0  0  0  0  0  0  0  0
   18.6910  -15.3390   -2.8620 C   0  0  2  0  0  0  0  0  0  0  0  0
   19.9760  -15.5970   -2.2690 O   0  0  0  0  0  0  0  0  0  0  0  0
   21.8400  -14.0990   -2.0550 C   0  0  0  0  0  0  0  0  0  0  0  0
   23.8330  -13.0580   -0.7760 C   0  0  0  0  0  0  0  0  0  0  0  0
   25.1890  -13.3300   -0.4130 C   0  0  0  0  0  0  0  0  0  0  0  0
   26.0980  -12.2800   -0.1910 C   0  0  0  0  0  0  0  0  0  0  0  0
   25.7010  -10.9580   -0.3320 C   0  0  0  0  0  0  0  0  0  0  0  0
   26.6760   -9.8370   -0.1290 C   0  0  0  0  0  0  0  0  0  0  0  0
   24.3970  -10.6840   -0.7450 C   0  0  0  0  0  0  0  0  0  0  0  0
   23.4800  -11.7240   -0.9850 C   0  0  0  0  0  0  0  0  0  0  0  0
   19.1950  -11.6770   -2.9130 O   0  0  0  0  0  0  0  0  0  0  0  0
   19.7670  -11.1720   -2.3060 H   0  0  0  0  0  0  0  0  0  0  0  0
   18.6040  -13.8230   -0.0950 O   0  0  0  0  0  0  0  0  0  0  0  0
   19.0520  -14.5280    0.4490 H   0  0  0  0  0  0  0  0  0  0  0  0
   17.4570  -13.6930   -4.2300 O   0  0  0  0  0  0  0  0  0  0  0  0
   17.3500  -12.6830   -4.2490 H   0  0  0  0  0  0  0  0  0  0  0  0
   18.3220  -16.5240   -3.7930 C   0  0  0  0  0  0  0  0  0  0  0  0
   17.0320  -16.4430   -4.3550 O   0  0  0  0  0  0  0  0  0  0  0  0
   16.7000  -15.4930   -4.1610 H   0  0  0  0  0  0  0  0  0  0  0  0
  1 12  1  1  0  0  0
  1  2  1  0  0  0  0
  2  3  1  0  0  0  0
  4  2  1  0  0  0  0
  5 11  1  6  0  0  0
  5  4  1  0  0  0  0
  6  5  1  6  0  0  0
  6 21  1  0  0  0  0
  7 19  1  6  0  0  0
  7  6  1  0  0  0  0
  8 23  1  1  0  0  0
  8  9  1  0  0  0  0
  8  7  1  0  0  0  0
  9 25  1  6  0  0  0
  9 10  1  0  0  0  0
 10  5  1  0  0  0  0
 11  1  1  0  0  0  0
 12 13  1  0  0  0  0
 13 14  2  0  0  0  0
 15 14  1  0  0  0  0
 15 16  1  0  0  0  0
 17 15  2  0  0  0  0
 18 12  2  0  0  0  0
 18 17  1  0  0  0  0
 19 20  1  0  0  0  0
 21 22  1  0  0  0  0
 24 23  1  0  0  0  0
 26 27  1  0  0  0  0
 26 25  1  0  0  0  0
M  END
>  <minimizedAffinity>
-7.81271744

$$$$

 OpenBabel12271915523D

 27 29  0  0  1  0  0  0  0  0999 V2000
   22.0470  -13.9710   -0.9890 C   0  0  1  0  0  0  0  0  0  0  0  0
   22.9030  -14.3250   -2.1240 N   0  0  0  0  0  0  0  0  0  0  0  0
   22.4900  -13.9750   -3.0530 H   0  0  0  0  0  0  0  0  0  0  0  0
   24.0610  -13.5210   -1.9670 O   0  0  0  0  0  0  0  0  0  0  0  0
   23.6910  -12.2470   -1.4500 C   0  0  2  0  0  0  0  0  0  0  0  0
   23.3840  -11.3330   -2.6840 C   0  0  1  0  0  0  0  0  0  0  0  0
   23.3260   -9.8130   -2.3180 C   0  0  2  0  0  0  0  0  0  0  0  0
   24.0750   -9.4710   -0.9830 C   0  0  1  0  0  0  0  0  0  0  0  0
   25.2430  -10.4640   -0.8070 C   0  0  2  0  0  0  0  0  0  0  0  0
   24.7360  -11.7930   -0.5960 O   0  0  0  0  0  0  0  0  0  0  0  0
   22.4520  -12.5310   -0.6210 C   0  0  0  0  0  0  0  0  0  0  0  0
   20.5680  -14.2030   -1.2170 C   0  0  0  0  0  0  0  0  0  0  0  0
   20.1770  -15.2310   -2.1300 C   0  0  0  0  0  0  0  0  0  0  0  0
   18.8200  -15.4450   -2.4320 C   0  0  0  0  0  0  0  0  0  0  0  0
   17.8320  -14.6720   -1.8400 C   0  0  0  0  0  0  0  0  0  0  0  0
   16.3830  -14.9200   -2.1340 C   0  0  0  0  0  0  0  0  0  0  0  0
   18.2010  -13.7070   -0.9020 C   0  0  0  0  0  0  0  0  0  0  0  0
   19.5530  -13.4900   -0.5780 C   0  0  0  0  0  0  0  0  0  0  0  0
   22.0470   -9.2150   -2.1820 O   0  0  0  0  0  0  0  0  0  0  0  0
   21.3710   -9.7550   -2.6330 H   0  0  0  0  0  0  0  0  0  0  0  0
   24.4130  -11.4600   -3.6850 O   0  0  0  0  0  0  0  0  0  0  0  0
   24.7590  -12.3910   -3.6000 H   0  0  0  0  0  0  0  0  0  0  0  0
   24.5380   -8.1050   -1.0100 O   0  0  0  0  0  0  0  0  0  0  0  0
   23.8050   -7.5940   -1.4920 H   0  0  0  0  0  0  0  0  0  0  0  0
   26.2960  -10.1490    0.2890 C   0  0  0  0  0  0  0  0  0  0  0  0
   26.9160   -8.8910    0.1560 O   0  0  0  0  0  0  0  0  0  0  0  0
   26.3730   -8.3820   -0.5480 H   0  0  0  0  0  0  0  0  0  0  0  0
  1 12  1  6  0  0  0
  1 11  1  0  0  0  0
  2  4  1  0  0  0  0
  2  1  1  0  0  0  0
  3  2  1  0  0  0  0
  4  5  1  0  0  0  0
  5 11  1  1  0  0  0
  5 10  1  0  0  0  0
  6  7  1  0  0  0  0
  6  5  1  1  0  0  0
  7 19  1  1  0  0  0
  7  8  1  0  0  0  0
  8 23  1  6  0  0  0
  8  9  1  0  0  0  0
  9 10  1  0  0  0  0
  9 25  1  1  0  0  0
 12 18  2  0  0  0  0
 13 12  1  0  0  0  0
 14 13  2  0  0  0  0
 14 15  1  0  0  0  0
 15 17  2  0  0  0  0
 16 15  1  0  0  0  0
 17 18  1  0  0  0  0
 20 19  1  0  0  0  0
 21 22  1  0  0  0  0
 21  6  1  0  0  0  0
 24 23  1  0  0  0  0
 26 25  1  0  0  0  0
 27 26  1  0  0  0  0
M  END
>  <minimizedAffinity>
-7.43301868

$$$$

 OpenBabel12271915523D

 27 29  0  0  1  0  0  0  0  0999 V2000
   23.7290  -12.8630    0.0220 C   0  0  1  0  0  0  0  0  0  0  0  0
   24.6280  -13.5970   -0.8740 N   0  0  0  0  0  0  0  0  0  0  0  0
   24.3280  -13.4980   -1.9010 H   0  0  0  0  0  0  0  0  0  0  0  0
   25.8490  -12.8750   -0.8290 O   0  0  0  0  0  0  0  0  0  0  0  0
   25.5760  -11.4820   -0.7310 C   0  0  2  0  0  0  0  0  0  0  0  0
   25.4630  -10.9420   -2.1960 C   0  0  1  0  0  0  0  0  0  0  0  0
   25.5380   -9.3810   -2.2780 C   0  0  2  0  0  0  0  0  0  0  0  0
   26.2130   -8.7280   -1.0220 C   0  0  1  0  0  0  0  0  0  0  0  0
   27.2530   -9.7170   -0.4550 C   0  0  2  0  0  0  0  0  0  0  0  0
   26.5940  -10.8840    0.0660 O   0  0  0  0  0  0  0  0  0  0  0  0
   24.2530  -11.4150    0.0110 C   0  0  0  0  0  0  0  0  0  0  0  0
   22.2560  -13.0330   -0.2860 C   0  0  0  0  0  0  0  0  0  0  0  0
   21.6280  -14.2660    0.0740 C   0  0  0  0  0  0  0  0  0  0  0  0
   20.2790  -14.5050   -0.2480 C   0  0  0  0  0  0  0  0  0  0  0  0
   19.5280  -13.5450   -0.9090 C   0  0  0  0  0  0  0  0  0  0  0  0
   18.0810  -13.7830   -1.2230 C   0  0  0  0  0  0  0  0  0  0  0  0
   20.1150  -12.3150   -1.2090 C   0  0  0  0  0  0  0  0  0  0  0  0
   21.4590  -12.0550   -0.8810 C   0  0  0  0  0  0  0  0  0  0  0  0
   24.3230   -8.6700   -2.4500 O   0  0  0  0  0  0  0  0  0  0  0  0
   23.6310   -9.2620   -2.7990 H   0  0  0  0  0  0  0  0  0  0  0  0
   26.5480  -11.4330   -3.0090 O   0  0  0  0  0  0  0  0  0  0  0  0
   26.7860  -12.3240   -2.6310 H   0  0  0  0  0  0  0  0  0  0  0  0
   26.8190   -7.4680   -1.3820 O   0  0  0  0  0  0  0  0  0  0  0  0
   26.1840   -7.0620   -2.0620 H   0  0  0  0  0  0  0  0  0  0  0  0
   28.2450   -9.1830    0.6120 C   0  0  0  0  0  0  0  0  0  0  0  0
   27.8840   -7.9430    1.1760 O   0  0  0  0  0  0  0  0  0  0  0  0
   26.9200   -7.7690    0.8760 H   0  0  0  0  0  0  0  0  0  0  0  0
  1 12  1  6  0  0  0
  2  4  1  0  0  0  0
  2  1  1  0  0  0  0
  3  2  1  0  0  0  0
  4  5  1  0  0  0  0
  5 11  1  1  0  0  0
  5 10  1  0  0  0  0
  6  5  1  1  0  0  0
  7 19  1  1  0  0  0
  7  6  1  0  0  0  0
  7  8  1  0  0  0  0
  8 23  1  6  0  0  0
  8  9  1  0  0  0  0
  9 10  1  0  0  0  0
  9 25  1  1  0  0  0
 11  1  1  0  0  0  0
 12 13  1  0  0  0  0
 14 13  2  0  0  0  0
 15 14  1  0  0  0  0
 16 15  1  0  0  0  0
 17 15  2  0  0  0  0
 17 18  1  0  0  0  0
 18 12  2  0  0  0  0
 20 19  1  0  0  0  0
 21 22  1  0  0  0  0
 21  6  1  0  0  0  0
 24 23  1  0  0  0  0
 25 26  1  0  0  0  0
 27 26  1  0  0  0  0
M  END
>  <minimizedAffinity>
-7.21438313

$$$$

 OpenBabel12271915523D

 27 29  0  0  1  0  0  0  0  0999 V2000
   24.0270  -12.3920   -0.4460 C   0  0  1  0  0  0  0  0  0  0  0  0
   25.3550  -12.9850   -0.6270 N   0  0  0  0  0  0  0  0  0  0  0  0
   25.4480  -13.4550   -1.5890 H   0  0  0  0  0  0  0  0  0  0  0  0
   26.2340  -11.8760   -0.7280 O   0  0  0  0  0  0  0  0  0  0  0  0
   25.5900  -10.8190   -1.4320 C   0  0  2  0  0  0  0  0  0  0  0  0
   25.8990  -11.0370   -2.9510 C   0  0  1  0  0  0  0  0  0  0  0  0
   25.5880   -9.7750   -3.8240 C   0  0  2  0  0  0  0  0  0  0  0  0
   25.5450   -8.4460   -2.9930 C   0  0  1  0  0  0  0  0  0  0  0  0
   26.5150   -8.5800   -1.8000 C   0  0  2  0  0  0  0  0  0  0  0  0
   26.0380   -9.5830   -0.8860 O   0  0  0  0  0  0  0  0  0  0  0  0
   24.1180  -11.0050   -1.1110 C   0  0  0  0  0  0  0  0  0  0  0  0
   22.8780  -13.2670   -0.9000 C   0  0  0  0  0  0  0  0  0  0  0  0
   23.1670  -14.3680   -1.7640 C   0  0  0  0  0  0  0  0  0  0  0  0
   22.1310  -15.1740   -2.2710 C   0  0  0  0  0  0  0  0  0  0  0  0
   20.8090  -14.9240   -1.9330 C   0  0  0  0  0  0  0  0  0  0  0  0
   19.7060  -15.8020   -2.4450 C   0  0  0  0  0  0  0  0  0  0  0  0
   20.5230  -13.8890   -1.0420 C   0  0  0  0  0  0  0  0  0  0  0  0
   21.5490  -13.0830   -0.5140 C   0  0  0  0  0  0  0  0  0  0  0  0
   24.3860   -9.7740   -4.5770 O   0  0  0  0  0  0  0  0  0  0  0  0
   24.0570  -10.6850   -4.6910 H   0  0  0  0  0  0  0  0  0  0  0  0
   27.2980  -11.3220   -3.1540 O   0  0  0  0  0  0  0  0  0  0  0  0
   27.6000  -11.7880   -2.3270 H   0  0  0  0  0  0  0  0  0  0  0  0
   25.8890   -7.3230   -3.8330 O   0  0  0  0  0  0  0  0  0  0  0  0
   25.4730   -7.5400   -4.7340 H   0  0  0  0  0  0  0  0  0  0  0  0
   26.8550   -7.2950   -1.0010 C   0  0  0  0  0  0  0  0  0  0  0  0
   25.8130   -6.3480   -0.9480 O   0  0  0  0  0  0  0  0  0  0  0  0
   24.9790   -6.8280   -1.3010 H   0  0  0  0  0  0  0  0  0  0  0  0
  1 12  1  6  0  0  0
  2  1  1  0  0  0  0
  3  2  1  0  0  0  0
  4  2  1  0  0  0  0
  5 11  1  1  0  0  0
  5 10  1  0  0  0  0
  5  4  1  0  0  0  0
  6  5  1  1  0  0  0
  7 19  1  1  0  0  0
  7  8  1  0  0  0  0
  7  6  1  0  0  0  0
  8 23  1  6  0  0  0
  8  9  1  0  0  0  0
  9 25  1  1  0  0  0
  9 10  1  0  0  0  0
 11  1  1  0  0  0  0
 12 18  1  0  0  0  0
 13 12  2  0  0  0  0
 14 15  2  0  0  0  0
 14 13  1  0  0  0  0
 15 17  1  0  0  0  0
 16 15  1  0  0  0  0
 17 18  2  0  0  0  0
 20 19  1  0  0  0  0
 21  6  1  0  0  0  0
 21 22  1  0  0  0  0
 24 23  1  0  0  0  0
 25 26  1  0  0  0  0
 27 26  1  0  0  0  0
M  END
>  <minimizedAffinity>
-7.14175653

$$$$

 OpenBabel12271915523D

 27 29  0  0  1  0  0  0  0  0999 V2000
   22.2400  -12.4750   -1.7120 C   0  0  1  0  0  0  0  0  0  0  0  0
   23.6270  -12.7660   -2.0880 N   0  0  0  0  0  0  0  0  0  0  0  0
   23.7000  -13.0770   -3.1140 H   0  0  0  0  0  0  0  0  0  0  0  0
   24.2720  -11.5020   -2.0920 O   0  0  0  0  0  0  0  0  0  0  0  0
   23.3720  -10.5090   -2.5730 C   0  0  2  0  0  0  0  0  0  0  0  0
   23.5490  -10.4580   -4.1280 C   0  0  1  0  0  0  0  0  0  0  0  0
   22.9200   -9.1780   -4.7720 C   0  0  2  0  0  0  0  0  0  0  0  0
   22.7230   -8.0060   -3.7490 C   0  0  1  0  0  0  0  0  0  0  0  0
   23.8250   -8.1040   -2.6730 C   0  0  2  0  0  0  0  0  0  0  0  0
   23.6420   -9.2930   -1.8850 O   0  0  0  0  0  0  0  0  0  0  0  0
   22.0020  -11.0230   -2.1660 C   0  0  0  0  0  0  0  0  0  0  0  0
   21.2290  -13.4920   -2.1990 C   0  0  0  0  0  0  0  0  0  0  0  0
   20.2530  -13.0710   -3.1550 C   0  0  0  0  0  0  0  0  0  0  0  0
   19.2480  -13.9530   -3.5920 C   0  0  0  0  0  0  0  0  0  0  0  0
   19.1900  -15.2540   -3.1130 C   0  0  0  0  0  0  0  0  0  0  0  0
   18.1420  -16.2070   -3.6020 C   0  0  0  0  0  0  0  0  0  0  0  0
   20.1750  -15.6920   -2.2260 C   0  0  0  0  0  0  0  0  0  0  0  0
   21.1950  -14.8260   -1.7910 C   0  0  0  0  0  0  0  0  0  0  0  0
   21.6630   -9.3150   -5.4170 O   0  0  0  0  0  0  0  0  0  0  0  0
   21.4970  -10.2490   -5.6400 H   0  0  0  0  0  0  0  0  0  0  0  0
   24.9460  -10.4330   -4.4840 O   0  0  0  0  0  0  0  0  0  0  0  0
   25.4170  -10.9360   -3.7640 H   0  0  0  0  0  0  0  0  0  0  0  0
   22.7630   -6.7360   -4.4360 O   0  0  0  0  0  0  0  0  0  0  0  0
   22.2990   -6.9090   -5.3220 H   0  0  0  0  0  0  0  0  0  0  0  0
   24.0080   -6.8930   -1.7200 C   0  0  0  0  0  0  0  0  0  0  0  0
   22.8320   -6.1540   -1.4840 O   0  0  0  0  0  0  0  0  0  0  0  0
   22.0650   -6.7190   -1.8590 H   0  0  0  0  0  0  0  0  0  0  0  0
  1 12  1  6  0  0  0
  2  1  1  0  0  0  0
  3  2  1  0  0  0  0
  4  2  1  0  0  0  0
  5 11  1  1  0  0  0
  5  4  1  0  0  0  0
  5 10  1  0  0  0  0
  6  5  1  1  0  0  0
  7 19  1  1  0  0  0
  7  6  1  0  0  0  0
  7  8  1  0  0  0  0
  8 23  1  6  0  0  0
  8  9  1  0  0  0  0
  9 10  1  0  0  0  0
  9 25  1  1  0  0  0
 11  1  1  0  0  0  0
 12 18  2  0  0  0  0
 13 12  1  0  0  0  0
 14 13  2  0  0  0  0
 14 15  1  0  0  0  0
 15 17  2  0  0  0  0
 16 15  1  0  0  0  0
 17 18  1  0  0  0  0
 20 19  1  0  0  0  0
 21  6  1  0  0  0  0
 21 22  1  0  0  0  0
 24 23  1  0  0  0  0
 25 26  1  0  0  0  0
 27 26  1  0  0  0  0
M  END
>  <minimizedAffinity>
-6.90695858

$$$$

 OpenBabel12271915523D

 27 29  0  0  1  0  0  0  0  0999 V2000
   18.5390   -9.8160   -1.8270 C   0  0  1  0  0  0  0  0  0  0  0  0
   19.2900   -8.5850   -1.5620 N   0  0  0  0  0  0  0  0  0  0  0  0
   20.3340   -8.7040   -1.7880 H   0  0  0  0  0  0  0  0  0  0  0  0
   18.8510   -7.6730   -2.5560 O   0  0  0  0  0  0  0  0  0  0  0  0
   18.6220   -8.3720   -3.7750 C   0  0  2  0  0  0  0  0  0  0  0  0
   19.9780   -8.3690   -4.5570 C   0  0  1  0  0  0  0  0  0  0  0  0
   19.8150   -8.7600   -6.0640 C   0  0  2  0  0  0  0  0  0  0  0  0
   18.3530   -8.5630   -6.5970 C   0  0  1  0  0  0  0  0  0  0  0  0
   17.7020   -7.3960   -5.8260 C   0  0  2  0  0  0  0  0  0  0  0  0
   17.5280   -7.7530   -4.4440 O   0  0  0  0  0  0  0  0  0  0  0  0
   18.2150   -9.7660   -3.3320 C   0  0  0  0  0  0  0  0  0  0  0  0
   19.2100  -11.0820   -1.3390 C   0  0  0  0  0  0  0  0  0  0  0  0
   18.3820  -12.1500   -0.8720 C   0  0  0  0  0  0  0  0  0  0  0  0
   18.9530  -13.3220   -0.3440 C   0  0  0  0  0  0  0  0  0  0  0  0
   20.3300  -13.4720   -0.2770 C   0  0  0  0  0  0  0  0  0  0  0  0
   20.9410  -14.7350    0.2530 C   0  0  0  0  0  0  0  0  0  0  0  0
   21.1450  -12.4610   -0.7870 C   0  0  0  0  0  0  0  0  0  0  0  0
   20.5900  -11.2880   -1.3310 C   0  0  0  0  0  0  0  0  0  0  0  0
   20.1680  -10.0800   -6.4440 O   0  0  0  0  0  0  0  0  0  0  0  0
   20.7540  -10.4810   -5.7750 H   0  0  0  0  0  0  0  0  0  0  0  0
   20.5700   -7.0550   -4.5530 O   0  0  0  0  0  0  0  0  0  0  0  0
   20.2790   -6.6310   -3.6990 H   0  0  0  0  0  0  0  0  0  0  0  0
   18.3730   -8.3150   -8.0190 O   0  0  0  0  0  0  0  0  0  0  0  0
   19.1200   -8.9050   -8.3730 H   0  0  0  0  0  0  0  0  0  0  0  0
   16.3640   -6.8310   -6.3710 C   0  0  0  0  0  0  0  0  0  0  0  0
   15.6760   -7.7010   -7.2410 O   0  0  0  0  0  0  0  0  0  0  0  0
   16.1430   -8.6090   -7.1580 H   0  0  0  0  0  0  0  0  0  0  0  0
  1  2  1  0  0  0  0
  1 12  1  6  0  0  0
  3  2  1  0  0  0  0
  4  2  1  0  0  0  0
  5 11  1  1  0  0  0
  5  4  1  0  0  0  0
  6 21  1  0  0  0  0
  6  5  1  6  0  0  0
  7 19  1  1  0  0  0
  7  6  1  0  0  0  0
  8 23  1  6  0  0  0
  8  7  1  0  0  0  0
  8  9  1  0  0  0  0
  9 25  1  6  0  0  0
  9 10  1  0  0  0  0
 10  5  1  0  0  0  0
 11  1  1  0  0  0  0
 12 18  2  0  0  0  0
 12 13  1  0  0  0  0
 13 14  2  0  0  0  0
 14 15  1  0  0  0  0
 15 16  1  0  0  0  0
 17 15  2  0  0  0  0
 18 17  1  0  0  0  0
 19 20  1  0  0  0  0
 21 22  1  0  0  0  0
 24 23  1  0  0  0  0
 26 27  1  0  0  0  0
 26 25  1  0  0  0  0
M  END
>  <minimizedAffinity>
-6.86277962

$$$$

 OpenBabel12271915523D

 27 29  0  0  1  0  0  0  0  0999 V2000
   24.6520  -10.4860   -2.0180 C   0  0  1  0  0  0  0  0  0  0  0  0
   24.5620   -9.2100   -1.3020 N   0  0  0  0  0  0  0  0  0  0  0  0
   24.5200   -9.3570   -0.2380 H   0  0  0  0  0  0  0  0  0  0  0  0
   25.8290   -8.6010   -1.4890 O   0  0  0  0  0  0  0  0  0  0  0  0
   26.8440   -9.5990   -1.4760 C   0  0  2  0  0  0  0  0  0  0  0  0
   27.2910   -9.7650    0.0160 C   0  0  1  0  0  0  0  0  0  0  0  0
   28.6430  -10.5400    0.1650 C   0  0  2  0  0  0  0  0  0  0  0  0
   29.5090  -10.5260   -1.1420 C   0  0  1  0  0  0  0  0  0  0  0  0
   29.2260   -9.2150   -1.9050 C   0  0  2  0  0  0  0  0  0  0  0  0
   27.8690   -9.2030   -2.3820 O   0  0  0  0  0  0  0  0  0  0  0  0
   26.1510  -10.8390   -2.0110 C   0  0  0  0  0  0  0  0  0  0  0  0
   23.7190  -11.5630   -1.5070 C   0  0  0  0  0  0  0  0  0  0  0  0
   22.3550  -11.2150   -1.2600 C   0  0  0  0  0  0  0  0  0  0  0  0
   21.4590  -12.1570   -0.7210 C   0  0  0  0  0  0  0  0  0  0  0  0
   21.8790  -13.4470   -0.4310 C   0  0  0  0  0  0  0  0  0  0  0  0
   20.9190  -14.4630    0.1110 C   0  0  0  0  0  0  0  0  0  0  0  0
   23.1930  -13.8130   -0.7250 C   0  0  0  0  0  0  0  0  0  0  0  0
   24.0960  -12.8870   -1.2780 C   0  0  0  0  0  0  0  0  0  0  0  0
   28.5820  -11.9040    0.5490 O   0  0  0  0  0  0  0  0  0  0  0  0
   27.7220  -12.1010    0.9660 H   0  0  0  0  0  0  0  0  0  0  0  0
   27.5020   -8.4800    0.6350 O   0  0  0  0  0  0  0  0  0  0  0  0
   26.8710   -7.8560    0.1810 H   0  0  0  0  0  0  0  0  0  0  0  0
   30.9080  -10.6570   -0.8110 O   0  0  0  0  0  0  0  0  0  0  0  0
   30.9280  -11.3000   -0.0260 H   0  0  0  0  0  0  0  0  0  0  0  0
   30.1730   -8.8470   -3.0780 C   0  0  0  0  0  0  0  0  0  0  0  0
   31.5440   -8.8960   -2.7570 O   0  0  0  0  0  0  0  0  0  0  0  0
   31.6030   -9.3620   -1.8460 H   0  0  0  0  0  0  0  0  0  0  0  0
  1 11  1  0  0  0  0
  1 12  1  1  0  0  0
  1  2  1  0  0  0  0
  2  3  1  0  0  0  0
  4  5  1  0  0  0  0
  4  2  1  0  0  0  0
  5 11  1  6  0  0  0
  6  5  1  6  0  0  0
  6  7  1  0  0  0  0
  6 21  1  0  0  0  0
  7 19  1  6  0  0  0
  8 23  1  1  0  0  0
  8  7  1  0  0  0  0
  9 25  1  6  0  0  0
  9  8  1  0  0  0  0
 10  9  1  0  0  0  0
 10  5  1  0  0  0  0
 12 18  2  0  0  0  0
 12 13  1  0  0  0  0
 13 14  2  0  0  0  0
 14 15  1  0  0  0  0
 15 16  1  0  0  0  0
 17 15  2  0  0  0  0
 18 17  1  0  0  0  0
 19 20  1  0  0  0  0
 22 21  1  0  0  0  0
 23 24  1  0  0  0  0
 25 26  1  0  0  0  0
 26 27  1  0  0  0  0
M  END
>  <minimizedAffinity>
-6.84082794

$$$$

 OpenBabel12271915523D

 27 29  0  0  1  0  0  0  0  0999 V2000
   21.0360  -12.6690   -1.8360 C   0  0  1  0  0  0  0  0  0  0  0  0
   22.4260  -12.7360   -2.2960 N   0  0  0  0  0  0  0  0  0  0  0  0
   22.4820  -12.9110   -3.3560 H   0  0  0  0  0  0  0  0  0  0  0  0
   22.9140  -11.4100   -2.1670 O   0  0  0  0  0  0  0  0  0  0  0  0
   21.8770  -10.4880   -2.4870 C   0  0  2  0  0  0  0  0  0  0  0  0
   21.9650  -10.2300   -4.0290 C   0  0  1  0  0  0  0  0  0  0  0  0
   21.1530   -8.9720   -4.4840 C   0  0  2  0  0  0  0  0  0  0  0  0
   20.8720   -7.9640   -3.3170 C   0  0  1  0  0  0  0  0  0  0  0  0
   22.0330   -8.0500   -2.3030 C   0  0  2  0  0  0  0  0  0  0  0  0
   22.0360   -9.3380   -1.6640 O   0  0  0  0  0  0  0  0  0  0  0  0
   20.6030  -11.2140   -2.0960 C   0  0  0  0  0  0  0  0  0  0  0  0
   20.1300  -13.7390   -2.4070 C   0  0  0  0  0  0  0  0  0  0  0  0
   19.0340  -13.3290   -3.2290 C   0  0  0  0  0  0  0  0  0  0  0  0
   18.1210  -14.2740   -3.7310 C   0  0  0  0  0  0  0  0  0  0  0  0
   18.2710  -15.6240   -3.4490 C   0  0  0  0  0  0  0  0  0  0  0  0
   17.3190  -16.6370   -4.0100 C   0  0  0  0  0  0  0  0  0  0  0  0
   19.3720  -16.0390   -2.6980 C   0  0  0  0  0  0  0  0  0  0  0  0
   20.3030  -15.1080   -2.2010 C   0  0  0  0  0  0  0  0  0  0  0  0
   19.8900   -9.1870   -5.0930 O   0  0  0  0  0  0  0  0  0  0  0  0
   19.8250  -10.1020   -5.4250 H   0  0  0  0  0  0  0  0  0  0  0  0
   23.3280   -9.9880   -4.4320 O   0  0  0  0  0  0  0  0  0  0  0  0
   23.8930  -10.5100   -3.7990 H   0  0  0  0  0  0  0  0  0  0  0  0
   20.7230   -6.6270   -3.8410 O   0  0  0  0  0  0  0  0  0  0  0  0
   20.2370   -6.7490   -4.7240 H   0  0  0  0  0  0  0  0  0  0  0  0
   22.1200   -6.9480   -1.2150 C   0  0  0  0  0  0  0  0  0  0  0  0
   20.8720   -6.5110   -0.7260 O   0  0  0  0  0  0  0  0  0  0  0  0
   20.1820   -7.1800   -1.0810 H   0  0  0  0  0  0  0  0  0  0  0  0
  1 12  1  6  0  0  0
  2  4  1  0  0  0  0
  2  1  1  0  0  0  0
  3  2  1  0  0  0  0
  5  4  1  0  0  0  0
  5 11  1  1  0  0  0
  5 10  1  0  0  0  0
  6  5  1  1  0  0  0
  7 19  1  1  0  0  0
  7  6  1  0  0  0  0
  7  8  1  0  0  0  0
  8 23  1  6  0  0  0
  8  9  1  0  0  0  0
  9 10  1  0  0  0  0
  9 25  1  1  0  0  0
 11  1  1  0  0  0  0
 12 18  1  0  0  0  0
 13 12  2  0  0  0  0
 14 15  2  0  0  0  0
 14 13  1  0  0  0  0
 15 17  1  0  0  0  0
 16 15  1  0  0  0  0
 17 18  2  0  0  0  0
 20 19  1  0  0  0  0
 21  6  1  0  0  0  0
 21 22  1  0  0  0  0
 24 23  1  0  0  0  0
 25 26  1  0  0  0  0
 27 26  1  0  0  0  0
M  END
>  <minimizedAffinity>
-6.79564953

$$$$
