
 OpenBabel12271915443D

 25 29  0  0  1  0  0  0  0  0999 V2000
   18.7980  -11.0600   -1.0830 C   0  0  1  0  0  0  0  0  0  0  0  0
   19.7320  -12.2290   -1.0430 C   0  0  1  0  0  0  0  0  0  0  0  0
   19.3750  -13.5560   -1.6690 C   0  0  0  0  0  0  0  0  0  0  0  0
   18.1530  -13.6950   -2.3360 C   0  0  0  0  0  0  0  0  0  0  0  0
   17.8690  -14.9280   -2.9700 C   0  0  0  0  0  0  0  0  0  0  0  0
   16.7840  -15.1690   -3.7190 O   0  0  0  0  0  0  0  0  0  0  0  0
   17.1110  -16.3830   -4.3940 C   0  0  0  0  0  0  0  0  0  0  0  0
   18.2030  -17.0090   -3.6800 O   0  0  0  0  0  0  0  0  0  0  0  0
   18.6990  -15.9760   -2.9430 C   0  0  0  0  0  0  0  0  0  0  0  0
   19.8960  -15.9110   -2.2810 C   0  0  0  0  0  0  0  0  0  0  0  0
   20.2640  -14.6900   -1.6530 C   0  0  0  0  0  0  0  0  0  0  0  0
   21.6330  -14.8220   -1.0620 C   0  0  0  0  0  0  0  0  0  0  0  0
   22.3730  -13.4750   -0.9650 C   0  0  0  0  0  0  0  0  0  0  0  0
   21.9970  -12.5800   -2.1230 N   0  0  2  0  0  0  0  0  0  0  0  0
   21.7160  -13.1150   -2.9590 H   0  0  0  0  0  0  0  0  0  0  0  0
   23.1720  -11.7030   -2.4560 C   0  0  0  0  0  0  0  0  0  0  0  0
   23.2410  -10.8650   -1.1960 C   0  0  0  0  0  0  0  0  0  0  0  0
   21.7670  -10.6250   -0.8260 C   0  0  0  0  0  0  0  0  0  0  0  0
   20.9690  -11.5940   -1.7080 C   0  0  2  0  0  0  0  0  0  0  0  0
   20.2860  -10.8740   -2.8330 C   0  0  0  0  0  0  0  0  0  0  0  0
   19.0450  -10.5560   -2.4720 C   0  0  1  0  0  0  0  0  0  0  0  0
   17.4450  -11.3210   -0.8070 O   0  0  0  0  0  0  0  0  0  0  0  0
   17.3840  -11.9530   -0.0770 H   0  0  0  0  0  0  0  0  0  0  0  0
   18.1330   -9.9650   -3.2750 O   0  0  0  0  0  0  0  0  0  0  0  0
   18.5500   -9.1160   -4.3490 C   0  0  0  0  0  0  0  0  0  0  0  0
  1  2  1  0  0  0  0
  1 22  1  6  0  0  0
  2 19  1  6  0  0  0
  3 11  1  0  0  0  0
  3  2  1  0  0  0  0
  4  3  2  0  0  0  0
  5  9  2  0  0  0  0
  5  4  1  0  0  0  0
  6  5  1  0  0  0  0
  7  6  1  0  0  0  0
  7  8  1  0  0  0  0
  8  9  1  0  0  0  0
  9 10  1  0  0  0  0
 10 11  2  0  0  0  0
 11 12  1  0  0  0  0
 12 13  1  0  0  0  0
 14 19  1  1  0  0  0
 14 13  1  0  0  0  0
 15 14  1  0  0  0  0
 16 14  1  0  0  0  0
 16 17  1  0  0  0  0
 17 18  1  0  0  0  0
 19 20  1  6  0  0  0
 19 18  1  0  0  0  0
 20 21  1  0  0  0  0
 21 24  1  6  0  0  0
 21  1  1  0  0  0  0
 22 23  1  0  0  0  0
 25 24  1  0  0  0  0
M  END
>  <minimizedAffinity>
-7.78481007

$$$$

 OpenBabel12271915443D

 25 29  0  0  1  0  0  0  0  0999 V2000
   20.6180  -11.0480   -3.2610 C   0  0  1  0  0  0  0  0  0  0  0  0
   20.8020  -12.4930   -2.9150 C   0  0  1  0  0  0  0  0  0  0  0  0
   22.0750  -13.0060   -2.2890 C   0  0  0  0  0  0  0  0  0  0  0  0
   23.1050  -12.1080   -1.9890 C   0  0  0  0  0  0  0  0  0  0  0  0
   24.2630  -12.6030   -1.3440 C   0  0  0  0  0  0  0  0  0  0  0  0
   25.2820  -11.8430   -0.9160 O   0  0  0  0  0  0  0  0  0  0  0  0
   26.0110  -12.7200   -0.0580 C   0  0  0  0  0  0  0  0  0  0  0  0
   25.6100  -14.0770   -0.3630 O   0  0  0  0  0  0  0  0  0  0  0  0
   24.4340  -13.8890   -1.0270 C   0  0  0  0  0  0  0  0  0  0  0  0
   23.4750  -14.8220   -1.3210 C   0  0  0  0  0  0  0  0  0  0  0  0
   22.2690  -14.3900   -1.9360 C   0  0  0  0  0  0  0  0  0  0  0  0
   21.3410  -15.5540   -2.0950 C   0  0  0  0  0  0  0  0  0  0  0  0
   19.8590  -15.1370   -2.1100 C   0  0  0  0  0  0  0  0  0  0  0  0
   19.6330  -13.9500   -1.2030 N   0  0  2  0  0  0  0  0  0  0  0  0
   20.3190  -13.9060   -0.4330 H   0  0  0  0  0  0  0  0  0  0  0  0
   18.2430  -14.0320   -0.6360 C   0  0  0  0  0  0  0  0  0  0  0  0
   17.4320  -13.8390   -1.9010 C   0  0  0  0  0  0  0  0  0  0  0  0
   18.2270  -12.7920   -2.7000 C   0  0  0  0  0  0  0  0  0  0  0  0
   19.5840  -12.6940   -1.9910 C   0  0  2  0  0  0  0  0  0  0  0  0
   19.6920  -11.4320   -1.1860 C   0  0  0  0  0  0  0  0  0  0  0  0
   20.2720  -10.4840   -1.9180 C   0  0  1  0  0  0  0  0  0  0  0  0
   21.6990  -10.4040   -3.8850 O   0  0  0  0  0  0  0  0  0  0  0  0
   22.0950  -11.0020   -4.5360 H   0  0  0  0  0  0  0  0  0  0  0  0
   20.5860   -9.2470   -1.4720 O   0  0  0  0  0  0  0  0  0  0  0  0
   21.5210   -9.0730   -0.4030 C   0  0  0  0  0  0  0  0  0  0  0  0
  1 22  1  1  0  0  0
  1  2  1  0  0  0  0
  1 21  1  0  0  0  0
  2  3  1  0  0  0  0
  2 19  1  1  0  0  0
  3  4  2  0  0  0  0
  3 11  1  0  0  0  0
  4  5  1  0  0  0  0
  5  9  2  0  0  0  0
  5  6  1  0  0  0  0
  6  7  1  0  0  0  0
  8  7  1  0  0  0  0
  9  8  1  0  0  0  0
 10  9  1  0  0  0  0
 11 10  2  0  0  0  0
 12 11  1  0  0  0  0
 13 12  1  0  0  0  0
 13 14  1  0  0  0  0
 14 19  1  6  0  0  0
 14 16  1  0  0  0  0
 14 15  1  0  0  0  0
 17 16  1  0  0  0  0
 18 17  1  0  0  0  0
 19 18  1  6  0  0  0
 19 20  1  0  0  0  0
 21 24  1  1  0  0  0
 21 20  1  0  0  0  0
 23 22  1  0  0  0  0
 24 25  1  0  0  0  0
M  END
>  <minimizedAffinity>
-7.39119673

$$$$

 OpenBabel12271915443D

 25 29  0  0  1  0  0  0  0  0999 V2000
   21.0070  -11.1820   -3.3230 C   0  0  1  0  0  0  0  0  0  0  0  0
   21.4080  -12.4650   -2.6620 C   0  0  1  0  0  0  0  0  0  0  0  0
   22.7510  -12.6310   -1.9950 C   0  0  0  0  0  0  0  0  0  0  0  0
   23.6390  -11.5500   -1.9580 C   0  0  0  0  0  0  0  0  0  0  0  0
   24.8660  -11.7110   -1.2700 C   0  0  0  0  0  0  0  0  0  0  0  0
   25.7660  -10.7360   -1.0770 O   0  0  0  0  0  0  0  0  0  0  0  0
   26.6270  -11.2750   -0.0750 C   0  0  0  0  0  0  0  0  0  0  0  0
   26.4290  -12.7080   -0.0410 O   0  0  0  0  0  0  0  0  0  0  0  0
   25.2300  -12.8500   -0.6740 C   0  0  0  0  0  0  0  0  0  0  0  0
   24.4170  -13.9520   -0.7010 C   0  0  0  0  0  0  0  0  0  0  0  0
   23.1520  -13.8520   -1.3430 C   0  0  0  0  0  0  0  0  0  0  0  0
   22.4060  -15.1400   -1.1860 C   0  0  0  0  0  0  0  0  0  0  0  0
   20.8780  -14.9530   -1.2270 C   0  0  0  0  0  0  0  0  0  0  0  0
   20.4890  -13.6300   -0.6080 N   0  0  2  0  0  0  0  0  0  0  0  0
   21.1710  -13.3100    0.0980 H   0  0  0  0  0  0  0  0  0  0  0  0
   19.1340  -13.7730    0.0260 C   0  0  0  0  0  0  0  0  0  0  0  0
   18.2890  -13.9990   -1.2100 C   0  0  0  0  0  0  0  0  0  0  0  0
   18.9090  -13.0670   -2.2640 C   0  0  0  0  0  0  0  0  0  0  0  0
   20.2450  -12.6140   -1.6610 C   0  0  2  0  0  0  0  0  0  0  0  0
   20.1730  -11.1970   -1.1740 C   0  0  0  0  0  0  0  0  0  0  0  0
   20.5980  -10.3730   -2.1300 C   0  0  1  0  0  0  0  0  0  0  0  0
   21.9730  -10.5560   -4.1270 O   0  0  0  0  0  0  0  0  0  0  0  0
   22.4450  -11.2270   -4.6410 H   0  0  0  0  0  0  0  0  0  0  0  0
   20.7300   -9.0350   -1.9960 O   0  0  0  0  0  0  0  0  0  0  0  0
   20.7640   -8.4330   -0.6990 C   0  0  0  0  0  0  0  0  0  0  0  0
  1 22  1  1  0  0  0
  1  2  1  0  0  0  0
  1 21  1  0  0  0  0
  2  3  1  0  0  0  0
  2 19  1  1  0  0  0
  3  4  2  0  0  0  0
  3 11  1  0  0  0  0
  4  5  1  0  0  0  0
  5  6  1  0  0  0  0
  5  9  2  0  0  0  0
  6  7  1  0  0  0  0
  7  8  1  0  0  0  0
  9  8  1  0  0  0  0
 10  9  1  0  0  0  0
 11 12  1  0  0  0  0
 11 10  2  0  0  0  0
 13 12  1  0  0  0  0
 13 14  1  0  0  0  0
 14 19  1  6  0  0  0
 14 16  1  0  0  0  0
 14 15  1  0  0  0  0
 17 16  1  0  0  0  0
 18 17  1  0  0  0  0
 19 18  1  6  0  0  0
 19 20  1  0  0  0  0
 21 24  1  1  0  0  0
 21 20  1  0  0  0  0
 23 22  1  0  0  0  0
 24 25  1  0  0  0  0
M  END
>  <minimizedAffinity>
-7.37127399

$$$$

 OpenBabel12271915443D

 25 29  0  0  1  0  0  0  0  0999 V2000
   22.0000  -14.6490   -1.7140 C   0  0  1  0  0  0  0  0  0  0  0  0
   22.6890  -13.4330   -2.2520 C   0  0  1  0  0  0  0  0  0  0  0  0
   21.9180  -12.2800   -2.8460 C   0  0  0  0  0  0  0  0  0  0  0  0
   20.5200  -12.3240   -2.8680 C   0  0  0  0  0  0  0  0  0  0  0  0
   19.8180  -11.2020   -3.3710 C   0  0  0  0  0  0  0  0  0  0  0  0
   18.4840  -11.0710   -3.3650 O   0  0  0  0  0  0  0  0  0  0  0  0
   18.2870   -9.6850   -3.6420 C   0  0  0  0  0  0  0  0  0  0  0  0
   19.5120   -9.1660   -4.2120 O   0  0  0  0  0  0  0  0  0  0  0  0
   20.4240  -10.1120   -3.8490 C   0  0  0  0  0  0  0  0  0  0  0  0
   21.7900  -10.0200   -3.8830 C   0  0  0  0  0  0  0  0  0  0  0  0
   22.5600  -11.0950   -3.3590 C   0  0  0  0  0  0  0  0  0  0  0  0
   24.0150  -10.7510   -3.4260 C   0  0  0  0  0  0  0  0  0  0  0  0
   24.8480  -11.4700   -2.3490 C   0  0  0  0  0  0  0  0  0  0  0  0
   24.0430  -11.6400   -1.0820 N   0  0  2  0  0  0  0  0  0  0  0  0
   23.3190  -10.9120   -0.9740 H   0  0  0  0  0  0  0  0  0  0  0  0
   24.9780  -11.6000    0.0940 C   0  0  0  0  0  0  0  0  0  0  0  0
   25.7670  -12.8690   -0.1560 C   0  0  0  0  0  0  0  0  0  0  0  0
   24.7200  -13.8630   -0.6860 C   0  0  0  0  0  0  0  0  0  0  0  0
   23.4830  -13.0110   -1.0010 C   0  0  2  0  0  0  0  0  0  0  0  0
   22.4110  -13.2010    0.0320 C   0  0  0  0  0  0  0  0  0  0  0  0
   21.5670  -14.1490   -0.3700 C   0  0  1  0  0  0  0  0  0  0  0  0
   20.9520  -15.1770   -2.4870 O   0  0  0  0  0  0  0  0  0  0  0  0
   21.1980  -15.1460   -3.4220 H   0  0  0  0  0  0  0  0  0  0  0  0
   20.4470  -14.5180    0.2910 O   0  0  0  0  0  0  0  0  0  0  0  0
   19.2280  -13.7890    0.1210 C   0  0  0  0  0  0  0  0  0  0  0  0
  1 22  1  6  0  0  0
  1 21  1  0  0  0  0
  2  1  1  0  0  0  0
  2 19  1  1  0  0  0
  3  2  1  0  0  0  0
  4  3  1  0  0  0  0
  5  6  1  0  0  0  0
  5  4  2  0  0  0  0
  7  6  1  0  0  0  0
  8  9  1  0  0  0  0
  8  7  1  0  0  0  0
  9  5  1  0  0  0  0
 10  9  2  0  0  0  0
 10 11  1  0  0  0  0
 11  3  2  0  0  0  0
 12 11  1  0  0  0  0
 12 13  1  0  0  0  0
 13 14  1  0  0  0  0
 14 19  1  6  0  0  0
 14 15  1  0  0  0  0
 14 16  1  0  0  0  0
 17 16  1  0  0  0  0
 18 17  1  0  0  0  0
 19 18  1  1  0  0  0
 19 20  1  0  0  0  0
 21 20  1  0  0  0  0
 21 24  1  6  0  0  0
 23 22  1  0  0  0  0
 25 24  1  0  0  0  0
M  END
>  <minimizedAffinity>
-7.31373167

$$$$

 OpenBabel12271915443D

 25 29  0  0  1  0  0  0  0  0999 V2000
   19.2900  -13.4300   -1.3980 C   0  0  1  0  0  0  0  0  0  0  0  0
   19.9250  -12.0900   -1.1880 C   0  0  1  0  0  0  0  0  0  0  0  0
   21.3780  -11.9500   -0.8050 C   0  0  0  0  0  0  0  0  0  0  0  0
   22.1690  -13.0970   -0.6730 C   0  0  0  0  0  0  0  0  0  0  0  0
   23.5440  -12.9360   -0.3770 C   0  0  0  0  0  0  0  0  0  0  0  0
   24.4340  -13.9370   -0.3150 O   0  0  0  0  0  0  0  0  0  0  0  0
   25.6910  -13.2630   -0.3330 C   0  0  0  0  0  0  0  0  0  0  0  0
   25.4600  -11.8790    0.0210 O   0  0  0  0  0  0  0  0  0  0  0  0
   24.1210  -11.7450   -0.1930 C   0  0  0  0  0  0  0  0  0  0  0  0
   23.3940  -10.5870   -0.2800 C   0  0  0  0  0  0  0  0  0  0  0  0
   22.0140  -10.6710   -0.6110 C   0  0  0  0  0  0  0  0  0  0  0  0
   21.4400   -9.2930   -0.7260 C   0  0  0  0  0  0  0  0  0  0  0  0
   20.2320   -9.2280   -1.6780 C   0  0  0  0  0  0  0  0  0  0  0  0
   20.4000  -10.2080   -2.8160 N   0  0  2  0  0  0  0  0  0  0  0  0
   21.3920  -10.4000   -3.0270 H   0  0  0  0  0  0  0  0  0  0  0  0
   19.7220   -9.6510   -4.0370 C   0  0  0  0  0  0  0  0  0  0  0  0
   18.2800   -9.6850   -3.5750 C   0  0  0  0  0  0  0  0  0  0  0  0
   18.1770  -10.9890   -2.7660 C   0  0  0  0  0  0  0  0  0  0  0  0
   19.6260  -11.4460   -2.5560 C   0  0  2  0  0  0  0  0  0  0  0  0
   19.9670  -12.6080   -3.4410 C   0  0  0  0  0  0  0  0  0  0  0  0
   19.7630  -13.7470   -2.7830 C   0  0  1  0  0  0  0  0  0  0  0  0
   19.5900  -14.4270   -0.4550 O   0  0  0  0  0  0  0  0  0  0  0  0
   19.5950  -14.0380    0.4320 H   0  0  0  0  0  0  0  0  0  0  0  0
   20.0390  -14.9790   -3.2640 O   0  0  0  0  0  0  0  0  0  0  0  0
   19.0020  -15.9560   -3.4010 C   0  0  0  0  0  0  0  0  0  0  0  0
  1  2  1  0  0  0  0
  1 22  1  1  0  0  0
  2 19  1  6  0  0  0
  2  3  1  0  0  0  0
  3  4  2  0  0  0  0
  3 11  1  0  0  0  0
  4  5  1  0  0  0  0
  5  6  1  0  0  0  0
  5  9  2  0  0  0  0
  7  6  1  0  0  0  0
  7  8  1  0  0  0  0
  9  8  1  0  0  0  0
 10  9  1  0  0  0  0
 11 10  2  0  0  0  0
 12 11  1  0  0  0  0
 13 12  1  0  0  0  0
 14 19  1  1  0  0  0
 14 13  1  0  0  0  0
 15 14  1  0  0  0  0
 16 17  1  0  0  0  0
 16 14  1  0  0  0  0
 17 18  1  0  0  0  0
 18 19  1  0  0  0  0
 19 20  1  6  0  0  0
 20 21  1  0  0  0  0
 21 24  1  1  0  0  0
 21  1  1  0  0  0  0
 22 23  1  0  0  0  0
 25 24  1  0  0  0  0
M  END
>  <minimizedAffinity>
-7.14870501

$$$$

 OpenBabel12271915443D

 25 29  0  0  1  0  0  0  0  0999 V2000
   20.6010   -9.5970   -1.4780 C   0  0  1  0  0  0  0  0  0  0  0  0
   20.7900  -10.9940   -0.9730 C   0  0  1  0  0  0  0  0  0  0  0  0
   19.7400  -12.0600   -1.1670 C   0  0  0  0  0  0  0  0  0  0  0  0
   18.5680  -11.7520   -1.8680 C   0  0  0  0  0  0  0  0  0  0  0  0
   17.6280  -12.7860   -2.0930 C   0  0  0  0  0  0  0  0  0  0  0  0
   16.5120  -12.6560   -2.8250 O   0  0  0  0  0  0  0  0  0  0  0  0
   16.0970  -14.0040   -3.0370 C   0  0  0  0  0  0  0  0  0  0  0  0
   16.7640  -14.8350   -2.0570 O   0  0  0  0  0  0  0  0  0  0  0  0
   17.7900  -14.0360   -1.6500 C   0  0  0  0  0  0  0  0  0  0  0  0
   18.9020  -14.3920   -0.9330 C   0  0  0  0  0  0  0  0  0  0  0  0
   19.9070  -13.4130   -0.7010 C   0  0  0  0  0  0  0  0  0  0  0  0
   21.0550  -14.0370    0.0300 C   0  0  0  0  0  0  0  0  0  0  0  0
   22.3930  -13.3240   -0.2440 C   0  0  0  0  0  0  0  0  0  0  0  0
   22.4330  -12.7970   -1.6590 N   0  0  2  0  0  0  0  0  0  0  0  0
   21.8380  -13.3450   -2.3010 H   0  0  0  0  0  0  0  0  0  0  0  0
   23.8560  -12.8220   -2.1440 C   0  0  0  0  0  0  0  0  0  0  0  0
   24.4650  -11.7870   -1.2210 C   0  0  0  0  0  0  0  0  0  0  0  0
   23.3730  -10.7110   -1.0920 C   0  0  0  0  0  0  0  0  0  0  0  0
   22.1100  -11.3500   -1.6850 C   0  0  2  0  0  0  0  0  0  0  0  0
   21.8000  -10.7900   -3.0430 C   0  0  0  0  0  0  0  0  0  0  0  0
   20.9450   -9.7780   -2.9250 C   0  0  1  0  0  0  0  0  0  0  0  0
   19.3420   -9.0120   -1.2640 O   0  0  0  0  0  0  0  0  0  0  0  0
   19.0290   -9.2430   -0.3780 H   0  0  0  0  0  0  0  0  0  0  0  0
   20.4040   -9.0970   -3.9600 O   0  0  0  0  0  0  0  0  0  0  0  0
   20.7600   -9.4180   -5.3080 C   0  0  0  0  0  0  0  0  0  0  0  0
  1 22  1  6  0  0  0
  1  2  1  0  0  0  0
  2 19  1  6  0  0  0
  3  2  1  0  0  0  0
  3 11  2  0  0  0  0
  4  3  1  0  0  0  0
  5  4  2  0  0  0  0
  5  9  1  0  0  0  0
  6  5  1  0  0  0  0
  7  6  1  0  0  0  0
  7  8  1  0  0  0  0
  8  9  1  0  0  0  0
  9 10  2  0  0  0  0
 10 11  1  0  0  0  0
 11 12  1  0  0  0  0
 13 12  1  0  0  0  0
 14 19  1  1  0  0  0
 14 13  1  0  0  0  0
 15 14  1  0  0  0  0
 16 14  1  0  0  0  0
 16 17  1  0  0  0  0
 17 18  1  0  0  0  0
 19 20  1  6  0  0  0
 19 18  1  0  0  0  0
 20 21  1  0  0  0  0
 21 24  1  6  0  0  0
 21  1  1  0  0  0  0
 22 23  1  0  0  0  0
 25 24  1  0  0  0  0
M  END
>  <minimizedAffinity>
-7.08643198

$$$$

 OpenBabel12271915443D

 25 29  0  0  1  0  0  0  0  0999 V2000
   23.0770  -10.6220   -0.6930 C   0  0  1  0  0  0  0  0  0  0  0  0
   22.1190  -11.7560   -0.4990 C   0  0  1  0  0  0  0  0  0  0  0  0
   20.6470  -11.6150   -0.7980 C   0  0  0  0  0  0  0  0  0  0  0  0
   20.1600  -10.4040   -1.3030 C   0  0  0  0  0  0  0  0  0  0  0  0
   18.7870  -10.3170   -1.6370 C   0  0  0  0  0  0  0  0  0  0  0  0
   18.2080   -9.2540   -2.2140 O   0  0  0  0  0  0  0  0  0  0  0  0
   16.9470   -9.7610   -2.6490 C   0  0  0  0  0  0  0  0  0  0  0  0
   16.6870  -10.9880   -1.9270 O   0  0  0  0  0  0  0  0  0  0  0  0
   17.9260  -11.3250   -1.4720 C   0  0  0  0  0  0  0  0  0  0  0  0
   18.3350  -12.5260   -0.9540 C   0  0  0  0  0  0  0  0  0  0  0  0
   19.7100  -12.6970   -0.6310 C   0  0  0  0  0  0  0  0  0  0  0  0
   19.9430  -14.0980   -0.1580 C   0  0  0  0  0  0  0  0  0  0  0  0
   21.3830  -14.5810   -0.4140 C   0  0  0  0  0  0  0  0  0  0  0  0
   21.9230  -13.9830   -1.6920 N   0  0  2  0  0  0  0  0  0  0  0  0
   21.1760  -13.7580   -2.3680 H   0  0  0  0  0  0  0  0  0  0  0  0
   22.8890  -14.9560   -2.3100 C   0  0  0  0  0  0  0  0  0  0  0  0
   23.9830  -14.9390   -1.2640 C   0  0  0  0  0  0  0  0  0  0  0  0
   24.0500  -13.4700   -0.8140 C   0  0  0  0  0  0  0  0  0  0  0  0
   22.7890  -12.8160   -1.3950 C   0  0  2  0  0  0  0  0  0  0  0  0
   23.1170  -11.9500   -2.5760 C   0  0  0  0  0  0  0  0  0  0  0  0
   23.2950  -10.6940   -2.1730 C   0  0  1  0  0  0  0  0  0  0  0  0
   22.6600   -9.3580   -0.2410 O   0  0  0  0  0  0  0  0  0  0  0  0
   22.2050   -9.4560    0.6070 H   0  0  0  0  0  0  0  0  0  0  0  0
   23.5320   -9.6440   -2.9910 O   0  0  0  0  0  0  0  0  0  0  0  0
   22.6410   -9.3470   -4.0700 C   0  0  0  0  0  0  0  0  0  0  0  0
  1  2  1  0  0  0  0
  1 22  1  6  0  0  0
  2 19  1  6  0  0  0
  3 11  1  0  0  0  0
  3  2  1  0  0  0  0
  4  3  2  0  0  0  0
  5  9  2  0  0  0  0
  5  4  1  0  0  0  0
  6  5  1  0  0  0  0
  7  6  1  0  0  0  0
  7  8  1  0  0  0  0
  8  9  1  0  0  0  0
  9 10  1  0  0  0  0
 10 11  2  0  0  0  0
 11 12  1  0  0  0  0
 13 12  1  0  0  0  0
 14 19  1  1  0  0  0
 14 13  1  0  0  0  0
 15 14  1  0  0  0  0
 16 14  1  0  0  0  0
 16 17  1  0  0  0  0
 17 18  1  0  0  0  0
 19 20  1  6  0  0  0
 19 18  1  0  0  0  0
 20 21  1  0  0  0  0
 21 24  1  6  0  0  0
 21  1  1  0  0  0  0
 22 23  1  0  0  0  0
 25 24  1  0  0  0  0
M  END
>  <minimizedAffinity>
-7.05885029

$$$$

 OpenBabel12271915443D

 25 29  0  0  1  0  0  0  0  0999 V2000
   22.7610   -9.1630   -0.4450 C   0  0  1  0  0  0  0  0  0  0  0  0
   23.5400  -10.4370   -0.3390 C   0  0  1  0  0  0  0  0  0  0  0  0
   22.8930  -11.7850   -0.5410 C   0  0  0  0  0  0  0  0  0  0  0  0
   21.5340  -11.8540   -0.8690 C   0  0  0  0  0  0  0  0  0  0  0  0
   20.9660  -13.1260   -1.1170 C   0  0  0  0  0  0  0  0  0  0  0  0
   19.7070  -13.3320   -1.5300 O   0  0  0  0  0  0  0  0  0  0  0  0
   19.7170  -14.6940   -1.9560 C   0  0  0  0  0  0  0  0  0  0  0  0
   20.8780  -15.3340   -1.3750 O   0  0  0  0  0  0  0  0  0  0  0  0
   21.6540  -14.2680   -1.0300 C   0  0  0  0  0  0  0  0  0  0  0  0
   22.9800  -14.2690   -0.6840 C   0  0  0  0  0  0  0  0  0  0  0  0
   23.6270  -13.0230   -0.4570 C   0  0  0  0  0  0  0  0  0  0  0  0
   25.0770  -13.2550   -0.1700 C   0  0  0  0  0  0  0  0  0  0  0  0
   25.9610  -12.0560   -0.5580 C   0  0  0  0  0  0  0  0  0  0  0  0
   25.4070  -11.3630   -1.7810 N   0  0  2  0  0  0  0  0  0  0  0  0
   24.8660  -12.0020   -2.3850 H   0  0  0  0  0  0  0  0  0  0  0  0
   26.5490  -10.7750   -2.5630 C   0  0  0  0  0  0  0  0  0  0  0  0
   27.0250   -9.7240   -1.5810 C   0  0  0  0  0  0  0  0  0  0  0  0
   25.7280   -9.1760   -0.9610 C   0  0  0  0  0  0  0  0  0  0  0  0
   24.6320  -10.1590   -1.3920 C   0  0  2  0  0  0  0  0  0  0  0  0
   23.7700   -9.5790   -2.4740 C   0  0  0  0  0  0  0  0  0  0  0  0
   22.7040   -8.9960   -1.9320 C   0  0  1  0  0  0  0  0  0  0  0  0
   21.5020   -9.1390    0.1780 O   0  0  0  0  0  0  0  0  0  0  0  0
   21.5570   -9.5920    1.0310 H   0  0  0  0  0  0  0  0  0  0  0  0
   21.6890   -8.4370   -2.6290 O   0  0  0  0  0  0  0  0  0  0  0  0
   20.8610   -9.2380   -3.4770 C   0  0  0  0  0  0  0  0  0  0  0  0
  1  2  1  0  0  0  0
  1 22  1  6  0  0  0
  2 19  1  6  0  0  0
  3 11  1  0  0  0  0
  3  2  1  0  0  0  0
  4  3  2  0  0  0  0
  5  9  2  0  0  0  0
  5  4  1  0  0  0  0
  6  5  1  0  0  0  0
  7  6  1  0  0  0  0
  7  8  1  0  0  0  0
  8  9  1  0  0  0  0
  9 10  1  0  0  0  0
 10 11  2  0  0  0  0
 11 12  1  0  0  0  0
 13 12  1  0  0  0  0
 14 19  1  1  0  0  0
 14 13  1  0  0  0  0
 15 14  1  0  0  0  0
 16 14  1  0  0  0  0
 16 17  1  0  0  0  0
 17 18  1  0  0  0  0
 19 20  1  6  0  0  0
 19 18  1  0  0  0  0
 20 21  1  0  0  0  0
 21 24  1  6  0  0  0
 21  1  1  0  0  0  0
 22 23  1  0  0  0  0
 25 24  1  0  0  0  0
M  END
>  <minimizedAffinity>
-7.02437592

$$$$

 OpenBabel12271915443D

 25 29  0  0  1  0  0  0  0  0999 V2000
   23.2520  -11.9580   -0.4060 C   0  0  1  0  0  0  0  0  0  0  0  0
   21.7690  -12.0910   -0.5700 C   0  0  1  0  0  0  0  0  0  0  0  0
   20.9070  -10.9270   -0.9960 C   0  0  0  0  0  0  0  0  0  0  0  0
   21.5060   -9.6950   -1.2800 C   0  0  0  0  0  0  0  0  0  0  0  0
   20.6850   -8.6380   -1.7400 C   0  0  0  0  0  0  0  0  0  0  0  0
   21.1360   -7.4390   -2.1370 O   0  0  0  0  0  0  0  0  0  0  0  0
   20.0140   -6.8710   -2.8110 C   0  0  0  0  0  0  0  0  0  0  0  0
   18.8330   -7.6010   -2.4030 O   0  0  0  0  0  0  0  0  0  0  0  0
   19.3630   -8.7490   -1.8940 C   0  0  0  0  0  0  0  0  0  0  0  0
   18.7140   -9.9200   -1.6030 C   0  0  0  0  0  0  0  0  0  0  0  0
   19.4810  -11.0370   -1.1720 C   0  0  0  0  0  0  0  0  0  0  0  0
   18.5840  -12.2210   -0.9870 C   0  0  0  0  0  0  0  0  0  0  0  0
   19.3190  -13.5600   -1.1770 C   0  0  0  0  0  0  0  0  0  0  0  0
   20.3970  -13.4290   -2.2270 N   0  0  2  0  0  0  0  0  0  0  0  0
   20.1860  -12.6930   -2.9190 H   0  0  0  0  0  0  0  0  0  0  0  0
   20.5540  -14.7510   -2.9270 C   0  0  0  0  0  0  0  0  0  0  0  0
   21.0860  -15.5910   -1.7850 C   0  0  0  0  0  0  0  0  0  0  0  0
   22.0250  -14.6380   -1.0260 C   0  0  0  0  0  0  0  0  0  0  0  0
   21.7250  -13.2440   -1.5910 C   0  0  2  0  0  0  0  0  0  0  0  0
   22.8140  -12.7810   -2.5130 C   0  0  0  0  0  0  0  0  0  0  0  0
   23.6970  -12.0540   -1.8320 C   0  0  1  0  0  0  0  0  0  0  0  0
   23.7140  -10.8080    0.2560 O   0  0  0  0  0  0  0  0  0  0  0  0
   23.1340  -10.6160    1.0070 H   0  0  0  0  0  0  0  0  0  0  0  0
   24.7640  -11.4250   -2.3740 O   0  0  0  0  0  0  0  0  0  0  0  0
   24.5820  -10.3990   -3.3550 C   0  0  0  0  0  0  0  0  0  0  0  0
  1 22  1  6  0  0  0
  2 19  1  6  0  0  0
  2  1  1  0  0  0  0
  3  2  1  0  0  0  0
  4  3  2  0  0  0  0
  5  4  1  0  0  0  0
  6  5  1  0  0  0  0
  7  8  1  0  0  0  0
  7  6  1  0  0  0  0
  8  9  1  0  0  0  0
  9  5  2  0  0  0  0
  9 10  1  0  0  0  0
 10 11  2  0  0  0  0
 11  3  1  0  0  0  0
 11 12  1  0  0  0  0
 13 12  1  0  0  0  0
 14 19  1  1  0  0  0
 14 13  1  0  0  0  0
 15 14  1  0  0  0  0
 16 14  1  0  0  0  0
 16 17  1  0  0  0  0
 17 18  1  0  0  0  0
 19 20  1  6  0  0  0
 19 18  1  0  0  0  0
 20 21  1  0  0  0  0
 21 24  1  6  0  0  0
 21  1  1  0  0  0  0
 22 23  1  0  0  0  0
 25 24  1  0  0  0  0
M  END
>  <minimizedAffinity>
-6.68404293

$$$$
