
 OpenBabel12271915403D

 32 35  0  0  1  0  0  0  0  0999 V2000
   23.6180   -9.7060   -0.3140 C   0  0  1  0  0  0  0  0  0  0  0  0
   24.6840   -8.6110   -0.6010 N   0  0  0  0  0  0  0  0  0  0  0  0
   24.2530   -7.7170   -0.5030 H   0  0  0  0  0  0  0  0  0  0  0  0
   25.4840   -8.6900    0.0480 H   0  0  0  0  0  0  0  0  0  0  0  0
   25.0400   -8.7130   -1.5330 H   0  0  0  0  0  0  0  0  0  0  0  0
   22.7470   -9.8290   -1.5700 C   0  0  0  0  0  0  0  0  0  0  0  0
   21.3290   -9.5710   -1.2070 C   0  0  0  0  0  0  0  0  0  0  0  0
   20.2150  -10.2390   -1.7750 C   0  0  0  0  0  0  0  0  0  0  0  0
   20.1380  -11.2500   -2.7780 C   0  0  0  0  0  0  0  0  0  0  0  0
   18.9020  -11.7520   -3.1550 C   0  0  0  0  0  0  0  0  0  0  0  0
   17.7400  -11.2560   -2.5400 C   0  0  0  0  0  0  0  0  0  0  0  0
   17.8130  -10.2670   -1.5470 C   0  0  0  0  0  0  0  0  0  0  0  0
   19.0710   -9.7910   -1.1860 C   0  0  0  0  0  0  0  0  0  0  0  0
   19.4190   -8.8120   -0.2400 N   0  0  0  0  0  0  0  0  0  0  0  0
   18.7930   -8.2920    0.3180 H   0  0  0  0  0  0  0  0  0  0  0  0
   20.8070   -8.7060   -0.2630 C   0  0  0  0  0  0  0  0  0  0  0  0
   24.4470  -11.0250   -0.1540 C   0  0  0  0  0  0  0  0  0  0  0  0
   23.3440  -12.0460    0.0010 O   0  0  0  0  0  0  0  0  0  0  0  0
   22.8150  -13.1640   -0.5490 C   0  0  0  0  0  0  0  0  0  0  0  0
   21.5190  -13.5040   -0.7410 C   0  0  0  0  0  0  0  0  0  0  0  0
   21.2650  -14.7310   -1.5220 C   0  0  0  0  0  0  0  0  0  0  0  0
   22.4010  -15.5150   -1.9620 C   0  0  0  0  0  0  0  0  0  0  0  0
   23.6310  -15.1510   -1.6770 N   0  0  0  0  0  0  0  0  0  0  0  0
   23.7880  -13.9830   -0.9650 C   0  0  0  0  0  0  0  0  0  0  0  0
   19.9560  -15.2460   -1.9290 C   0  0  0  0  0  0  0  0  0  0  0  0
   19.6140  -15.5020   -3.1690 C   0  0  0  0  0  0  0  0  0  0  0  0
   18.2710  -15.9900   -3.6000 C   0  0  0  0  0  0  0  0  0  0  0  0
   17.1680  -15.2140   -3.2630 C   0  0  0  0  0  0  0  0  0  0  0  0
   15.9260  -15.6700   -3.6600 C   0  0  0  0  0  0  0  0  0  0  0  0
   15.7100  -16.8040   -4.3430 N   0  0  0  0  0  0  0  0  0  0  0  0
   16.8090  -17.5250   -4.6470 C   0  0  0  0  0  0  0  0  0  0  0  0
   18.0870  -17.1830   -4.3120 C   0  0  0  0  0  0  0  0  0  0  0  0
  1  6  1  6  0  0  0
  1 17  1  0  0  0  0
  2  3  1  0  0  0  0
  2  1  1  0  0  0  0
  2  4  1  0  0  0  0
  5  2  1  0  0  0  0
  6  7  1  0  0  0  0
  7 16  2  0  0  0  0
  8  7  1  0  0  0  0
  8 13  2  0  0  0  0
  9  8  1  0  0  0  0
 10  9  2  0  0  0  0
 10 11  1  0  0  0  0
 11 12  2  0  0  0  0
 12 13  1  0  0  0  0
 13 14  1  0  0  0  0
 14 15  1  0  0  0  0
 16 14  1  0  0  0  0
 17 18  1  0  0  0  0
 19 18  1  0  0  0  0
 20 19  1  0  0  0  0
 21 20  2  0  0  0  0
 22 23  2  0  0  0  0
 22 21  1  0  0  0  0
 23 24  1  0  0  0  0
 24 19  2  0  0  0  0
 25 21  1  0  0  0  0
 26 25  2  0  0  0  0
 27 28  1  0  0  0  0
 27 26  1  0  0  0  0
 29 28  2  0  0  0  0
 30 29  1  0  0  0  0
 31 30  2  0  0  0  0
 31 32  1  0  0  0  0
 32 27  2  0  0  0  0
M  END
>  <minimizedAffinity>
-8.24429131

$$$$

 OpenBabel12271915403D

 32 35  0  0  1  0  0  0  0  0999 V2000
   25.3320  -11.2540   -1.6420 C   0  0  1  0  0  0  0  0  0  0  0  0
   26.8350  -11.2210   -1.2440 N   0  0  0  0  0  0  0  0  0  0  0  0
   27.1860  -12.1540   -1.2560 H   0  0  0  0  0  0  0  0  0  0  0  0
   27.3790  -10.6300   -1.8930 H   0  0  0  0  0  0  0  0  0  0  0  0
   26.9400  -10.8350   -0.3240 H   0  0  0  0  0  0  0  0  0  0  0  0
   24.5480  -11.7180   -0.4080 C   0  0  0  0  0  0  0  0  0  0  0  0
   23.9780  -13.0660   -0.6720 C   0  0  0  0  0  0  0  0  0  0  0  0
   22.5990  -13.3870   -0.5990 C   0  0  0  0  0  0  0  0  0  0  0  0
   21.4650  -12.5900   -0.2660 C   0  0  0  0  0  0  0  0  0  0  0  0
   20.1990  -13.1550   -0.2780 C   0  0  0  0  0  0  0  0  0  0  0  0
   20.0530  -14.5100   -0.6180 C   0  0  0  0  0  0  0  0  0  0  0  0
   21.1660  -15.2960   -0.9540 C   0  0  0  0  0  0  0  0  0  0  0  0
   22.4220  -14.6940   -0.9410 C   0  0  0  0  0  0  0  0  0  0  0  0
   23.6810  -15.2490   -1.2250 N   0  0  0  0  0  0  0  0  0  0  0  0
   23.8630  -16.1860   -1.4720 H   0  0  0  0  0  0  0  0  0  0  0  0
   24.6150  -14.2280   -1.0660 C   0  0  0  0  0  0  0  0  0  0  0  0
   24.9710   -9.7560   -1.9240 C   0  0  0  0  0  0  0  0  0  0  0  0
   24.2320   -9.8770   -3.2360 O   0  0  0  0  0  0  0  0  0  0  0  0
   23.0230  -10.1540   -3.7800 C   0  0  0  0  0  0  0  0  0  0  0  0
   22.1360  -11.1280   -3.4680 C   0  0  0  0  0  0  0  0  0  0  0  0
   20.8230  -11.0680   -4.1400 C   0  0  0  0  0  0  0  0  0  0  0  0
   20.6010  -10.0300   -5.1260 C   0  0  0  0  0  0  0  0  0  0  0  0
   21.5400   -9.1590   -5.4220 N   0  0  0  0  0  0  0  0  0  0  0  0
   22.7290   -9.2650   -4.7360 C   0  0  0  0  0  0  0  0  0  0  0  0
   19.6830  -11.9550   -3.8980 C   0  0  0  0  0  0  0  0  0  0  0  0
   19.7510  -13.2650   -3.9020 C   0  0  0  0  0  0  0  0  0  0  0  0
   18.5890  -14.1780   -3.6960 C   0  0  0  0  0  0  0  0  0  0  0  0
   17.3750  -13.6030   -3.3390 C   0  0  0  0  0  0  0  0  0  0  0  0
   16.3020  -14.4510   -3.1450 C   0  0  0  0  0  0  0  0  0  0  0  0
   16.3490  -15.7850   -3.2760 N   0  0  0  0  0  0  0  0  0  0  0  0
   17.5470  -16.3000   -3.6230 C   0  0  0  0  0  0  0  0  0  0  0  0
   18.6790  -15.5690   -3.8410 C   0  0  0  0  0  0  0  0  0  0  0  0
  1 17  1  1  0  0  0
  1  2  1  0  0  0  0
  1  6  1  0  0  0  0
  2  5  1  0  0  0  0
  3  2  1  0  0  0  0
  4  2  1  0  0  0  0
  7  8  1  0  0  0  0
  7  6  1  0  0  0  0
  8  9  2  0  0  0  0
 10  9  1  0  0  0  0
 11 10  2  0  0  0  0
 12 13  2  0  0  0  0
 12 11  1  0  0  0  0
 13  8  1  0  0  0  0
 14 16  1  0  0  0  0
 14 13  1  0  0  0  0
 15 14  1  0  0  0  0
 16  7  2  0  0  0  0
 18 17  1  0  0  0  0
 19 20  1  0  0  0  0
 19 18  1  0  0  0  0
 21 25  1  0  0  0  0
 21 20  2  0  0  0  0
 22 21  1  0  0  0  0
 23 22  2  0  0  0  0
 23 24  1  0  0  0  0
 24 19  2  0  0  0  0
 26 25  2  0  0  0  0
 26 27  1  0  0  0  0
 27 28  1  0  0  0  0
 28 29  2  0  0  0  0
 30 29  1  0  0  0  0
 31 30  2  0  0  0  0
 32 27  2  0  0  0  0
 32 31  1  0  0  0  0
M  END
>  <minimizedAffinity>
-7.88483

$$$$

 OpenBabel12271915403D

 32 35  0  0  1  0  0  0  0  0999 V2000
   22.5090  -14.3120   -1.4520 C   0  0  1  0  0  0  0  0  0  0  0  0
   23.8410  -15.1120   -1.5100 N   0  0  0  0  0  0  0  0  0  0  0  0
   23.7380  -15.8510   -2.1720 H   0  0  0  0  0  0  0  0  0  0  0  0
   24.6300  -14.5020   -1.7810 H   0  0  0  0  0  0  0  0  0  0  0  0
   24.0530  -15.4960   -0.6080 H   0  0  0  0  0  0  0  0  0  0  0  0
   21.5280  -15.1300   -0.6030 C   0  0  0  0  0  0  0  0  0  0  0  0
   20.1510  -14.6090   -0.8100 C   0  0  0  0  0  0  0  0  0  0  0  0
   19.2540  -15.0730   -1.8040 C   0  0  0  0  0  0  0  0  0  0  0  0
   19.4020  -16.0720   -2.8110 C   0  0  0  0  0  0  0  0  0  0  0  0
   18.3470  -16.3470   -3.6680 C   0  0  0  0  0  0  0  0  0  0  0  0
   17.1440  -15.6330   -3.5320 C   0  0  0  0  0  0  0  0  0  0  0  0
   16.9920  -14.6550   -2.5370 C   0  0  0  0  0  0  0  0  0  0  0  0
   18.0690  -14.4110   -1.6870 C   0  0  0  0  0  0  0  0  0  0  0  0
   18.1810  -13.4940   -0.6280 N   0  0  0  0  0  0  0  0  0  0  0  0
   17.4880  -12.8560   -0.3330 H   0  0  0  0  0  0  0  0  0  0  0  0
   19.4610  -13.6440   -0.1000 C   0  0  0  0  0  0  0  0  0  0  0  0
   22.8720  -13.0060   -0.6690 C   0  0  0  0  0  0  0  0  0  0  0  0
   24.2400  -12.6990   -1.2340 O   0  0  0  0  0  0  0  0  0  0  0  0
   25.3160  -11.8880   -1.0930 C   0  0  0  0  0  0  0  0  0  0  0  0
   26.2760  -11.8820   -0.1390 C   0  0  0  0  0  0  0  0  0  0  0  0
   27.4160  -10.9690   -0.3530 C   0  0  0  0  0  0  0  0  0  0  0  0
   27.3950  -10.1020   -1.5150 C   0  0  0  0  0  0  0  0  0  0  0  0
   26.3910  -10.1210   -2.3610 N   0  0  0  0  0  0  0  0  0  0  0  0
   25.3760  -11.0160   -2.1060 C   0  0  0  0  0  0  0  0  0  0  0  0
   28.6070  -10.8540    0.4910 C   0  0  0  0  0  0  0  0  0  0  0  0
   29.3490  -11.8690    0.8650 C   0  0  0  0  0  0  0  0  0  0  0  0
   30.5420  -11.7690    1.7570 C   0  0  0  0  0  0  0  0  0  0  0  0
   31.3750  -10.6690    1.5930 C   0  0  0  0  0  0  0  0  0  0  0  0
   32.4800  -10.5800    2.4180 C   0  0  0  0  0  0  0  0  0  0  0  0
   32.8050  -11.4780    3.3600 N   0  0  0  0  0  0  0  0  0  0  0  0
   31.9690  -12.5300    3.4820 C   0  0  0  0  0  0  0  0  0  0  0  0
   30.8480  -12.7300    2.7290 C   0  0  0  0  0  0  0  0  0  0  0  0
  1 17  1  1  0  0  0
  1  6  1  0  0  0  0
  2  1  1  0  0  0  0
  2  5  1  0  0  0  0
  3  2  1  0  0  0  0
  4  2  1  0  0  0  0
  7  6  1  0  0  0  0
  7 16  2  0  0  0  0
  8 13  1  0  0  0  0
  8  7  1  0  0  0  0
  9  8  2  0  0  0  0
 10 11  2  0  0  0  0
 10  9  1  0  0  0  0
 11 12  1  0  0  0  0
 12 13  2  0  0  0  0
 13 14  1  0  0  0  0
 14 15  1  0  0  0  0
 14 16  1  0  0  0  0
 18 19  1  0  0  0  0
 18 17  1  0  0  0  0
 19 20  2  0  0  0  0
 21 20  1  0  0  0  0
 21 25  1  0  0  0  0
 22 21  2  0  0  0  0
 23 24  2  0  0  0  0
 23 22  1  0  0  0  0
 24 19  1  0  0  0  0
 25 26  2  0  0  0  0
 26 27  1  0  0  0  0
 27 32  1  0  0  0  0
 28 27  2  0  0  0  0
 28 29  1  0  0  0  0
 29 30  2  0  0  0  0
 30 31  1  0  0  0  0
 32 31  2  0  0  0  0
M  END
>  <minimizedAffinity>
-7.76273823

$$$$

 OpenBabel12271915403D

 32 35  0  0  1  0  0  0  0  0999 V2000
   21.3030  -14.1440   -1.4310 C   0  0  1  0  0  0  0  0  0  0  0  0
   21.3780  -13.0270   -2.5100 N   0  0  0  0  0  0  0  0  0  0  0  0
   20.4790  -12.6020   -2.5880 H   0  0  0  0  0  0  0  0  0  0  0  0
   22.0850  -12.3170   -2.2630 H   0  0  0  0  0  0  0  0  0  0  0  0
   21.6410  -13.4200   -3.3950 H   0  0  0  0  0  0  0  0  0  0  0  0
   20.6260  -15.3570   -2.0810 C   0  0  0  0  0  0  0  0  0  0  0  0
   19.1600  -15.1200   -2.1440 C   0  0  0  0  0  0  0  0  0  0  0  0
   18.2600  -15.8410   -2.9700 C   0  0  0  0  0  0  0  0  0  0  0  0
   18.4820  -16.8950   -3.9050 C   0  0  0  0  0  0  0  0  0  0  0  0
   17.4090  -17.4440   -4.5890 C   0  0  0  0  0  0  0  0  0  0  0  0
   16.1150  -16.9530   -4.3510 C   0  0  0  0  0  0  0  0  0  0  0  0
   15.8920  -15.9220   -3.4250 C   0  0  0  0  0  0  0  0  0  0  0  0
   16.9910  -15.3990   -2.7480 C   0  0  0  0  0  0  0  0  0  0  0  0
   17.0450  -14.3720   -1.7900 N   0  0  0  0  0  0  0  0  0  0  0  0
   16.2800  -13.8450   -1.4570 H   0  0  0  0  0  0  0  0  0  0  0  0
   18.3810  -14.2300   -1.4270 C   0  0  0  0  0  0  0  0  0  0  0  0
   22.7990  -14.5070   -1.1420 C   0  0  0  0  0  0  0  0  0  0  0  0
   23.3520  -13.1610   -0.7360 O   0  0  0  0  0  0  0  0  0  0  0  0
   24.4320  -12.3520   -0.8520 C   0  0  0  0  0  0  0  0  0  0  0  0
   25.4270  -12.1040    0.0320 C   0  0  0  0  0  0  0  0  0  0  0  0
   26.5580  -11.2900   -0.4550 C   0  0  0  0  0  0  0  0  0  0  0  0
   26.4940  -10.7590   -1.8020 C   0  0  0  0  0  0  0  0  0  0  0  0
   25.4590  -10.9900   -2.5780 N   0  0  0  0  0  0  0  0  0  0  0  0
   24.4540  -11.7770   -2.0600 C   0  0  0  0  0  0  0  0  0  0  0  0
   27.7790  -10.9690    0.2860 C   0  0  0  0  0  0  0  0  0  0  0  0
   28.7000  -11.8450    0.6110 C   0  0  0  0  0  0  0  0  0  0  0  0
   29.9290  -11.5370    1.3990 C   0  0  0  0  0  0  0  0  0  0  0  0
   30.4590  -12.5520    2.1860 C   0  0  0  0  0  0  0  0  0  0  0  0
   31.5940  -12.2630    2.9170 C   0  0  0  0  0  0  0  0  0  0  0  0
   32.2180  -11.0750    2.9220 N   0  0  0  0  0  0  0  0  0  0  0  0
   31.6680  -10.1190    2.1450 C   0  0  0  0  0  0  0  0  0  0  0  0
   30.5500  -10.2810    1.3790 C   0  0  0  0  0  0  0  0  0  0  0  0
  1  6  1  6  0  0  0
  1 17  1  0  0  0  0
  2  4  1  0  0  0  0
  2  1  1  0  0  0  0
  3  2  1  0  0  0  0
  5  2  1  0  0  0  0
  7  6  1  0  0  0  0
  7 16  2  0  0  0  0
  8 13  1  0  0  0  0
  8  7  1  0  0  0  0
  9  8  2  0  0  0  0
 10 11  2  0  0  0  0
 10  9  1  0  0  0  0
 11 12  1  0  0  0  0
 12 13  2  0  0  0  0
 13 14  1  0  0  0  0
 14 15  1  0  0  0  0
 14 16  1  0  0  0  0
 17 18  1  0  0  0  0
 19 18  1  0  0  0  0
 19 20  2  0  0  0  0
 21 20  1  0  0  0  0
 21 25  1  0  0  0  0
 22 21  2  0  0  0  0
 23 24  2  0  0  0  0
 23 22  1  0  0  0  0
 24 19  1  0  0  0  0
 25 26  2  0  0  0  0
 26 27  1  0  0  0  0
 27 28  1  0  0  0  0
 28 29  2  0  0  0  0
 29 30  1  0  0  0  0
 31 30  2  0  0  0  0
 32 27  2  0  0  0  0
 32 31  1  0  0  0  0
M  END
>  <minimizedAffinity>
-7.75583076

$$$$

 OpenBabel12271915403D

 32 35  0  0  1  0  0  0  0  0999 V2000
   26.2220  -11.8560   -0.2070 C   0  0  1  0  0  0  0  0  0  0  0  0
   27.7130  -12.0400    0.1930 N   0  0  0  0  0  0  0  0  0  0  0  0
   28.0860  -11.1490    0.4440 H   0  0  0  0  0  0  0  0  0  0  0  0
   27.8090  -12.6980    0.9830 H   0  0  0  0  0  0  0  0  0  0  0  0
   28.2330  -12.4160   -0.5780 H   0  0  0  0  0  0  0  0  0  0  0  0
   26.2030  -11.2860   -1.6310 C   0  0  0  0  0  0  0  0  0  0  0  0
   25.3170  -10.0930   -1.6670 C   0  0  0  0  0  0  0  0  0  0  0  0
   24.2070   -9.9370   -2.5350 C   0  0  0  0  0  0  0  0  0  0  0  0
   23.6760  -10.7930   -3.5440 C   0  0  0  0  0  0  0  0  0  0  0  0
   22.5540  -10.4020   -4.2580 C   0  0  0  0  0  0  0  0  0  0  0  0
   21.9560   -9.1620   -3.9760 C   0  0  0  0  0  0  0  0  0  0  0  0
   22.4700   -8.3210   -2.9780 C   0  0  0  0  0  0  0  0  0  0  0  0
   23.5930   -8.7490   -2.2730 C   0  0  0  0  0  0  0  0  0  0  0  0
   24.3020   -8.1050   -1.2450 N   0  0  0  0  0  0  0  0  0  0  0  0
   24.1040   -7.2150   -0.8690 H   0  0  0  0  0  0  0  0  0  0  0  0
   25.3440   -8.9540   -0.8820 C   0  0  0  0  0  0  0  0  0  0  0  0
   25.6480  -13.3120   -0.2490 C   0  0  0  0  0  0  0  0  0  0  0  0
   24.1720  -13.0490   -0.0580 O   0  0  0  0  0  0  0  0  0  0  0  0
   22.9840  -13.0060   -0.7080 C   0  0  0  0  0  0  0  0  0  0  0  0
   22.4010  -13.9290   -1.5080 C   0  0  0  0  0  0  0  0  0  0  0  0
   21.0180  -13.6510   -1.9410 C   0  0  0  0  0  0  0  0  0  0  0  0
   20.4120  -12.3950   -1.5470 C   0  0  0  0  0  0  0  0  0  0  0  0
   21.0710  -11.5180   -0.8230 N   0  0  0  0  0  0  0  0  0  0  0  0
   22.3480  -11.8600   -0.4380 C   0  0  0  0  0  0  0  0  0  0  0  0
   20.1600  -14.5380   -2.7290 C   0  0  0  0  0  0  0  0  0  0  0  0
   18.8950  -14.7690   -2.4680 C   0  0  0  0  0  0  0  0  0  0  0  0
   18.0220  -15.7000   -3.2410 C   0  0  0  0  0  0  0  0  0  0  0  0
   16.6550  -15.4530   -3.2330 C   0  0  0  0  0  0  0  0  0  0  0  0
   15.8480  -16.3180   -3.9470 C   0  0  0  0  0  0  0  0  0  0  0  0
   16.2900  -17.3770   -4.6420 N   0  0  0  0  0  0  0  0  0  0  0  0
   17.6240  -17.5790   -4.6210 C   0  0  0  0  0  0  0  0  0  0  0  0
   18.5230  -16.7970   -3.9540 C   0  0  0  0  0  0  0  0  0  0  0  0
  1  6  1  6  0  0  0
  1  2  1  0  0  0  0
  2  3  1  0  0  0  0
  2  4  1  0  0  0  0
  5  2  1  0  0  0  0
  7  6  1  0  0  0  0
  7 16  2  0  0  0  0
  8 13  1  0  0  0  0
  8  7  1  0  0  0  0
  9  8  2  0  0  0  0
 10 11  2  0  0  0  0
 10  9  1  0  0  0  0
 11 12  1  0  0  0  0
 12 13  2  0  0  0  0
 13 14  1  0  0  0  0
 14 16  1  0  0  0  0
 14 15  1  0  0  0  0
 17  1  1  0  0  0  0
 17 18  1  0  0  0  0
 19 24  1  0  0  0  0
 19 18  1  0  0  0  0
 20 19  2  0  0  0  0
 21 22  2  0  0  0  0
 21 20  1  0  0  0  0
 22 23  1  0  0  0  0
 23 24  2  0  0  0  0
 25 26  2  0  0  0  0
 25 21  1  0  0  0  0
 27 28  1  0  0  0  0
 27 26  1  0  0  0  0
 29 28  2  0  0  0  0
 30 31  2  0  0  0  0
 30 29  1  0  0  0  0
 31 32  1  0  0  0  0
 32 27  2  0  0  0  0
M  END
>  <minimizedAffinity>
-7.416471

$$$$

 OpenBabel12271915403D

 32 35  0  0  1  0  0  0  0  0999 V2000
   16.9340  -14.5080   -2.1510 C   0  0  1  0  0  0  0  0  0  0  0  0
   15.5010  -15.0310   -1.8450 N   0  0  0  0  0  0  0  0  0  0  0  0
   15.5510  -15.6550   -1.0690 H   0  0  0  0  0  0  0  0  0  0  0  0
   14.8580  -14.2510   -1.6310 H   0  0  0  0  0  0  0  0  0  0  0  0
   15.1340  -15.5150   -2.6430 H   0  0  0  0  0  0  0  0  0  0  0  0
   17.6680  -15.6200   -2.9080 C   0  0  0  0  0  0  0  0  0  0  0  0
   19.1350  -15.4080   -2.7840 C   0  0  0  0  0  0  0  0  0  0  0  0
   19.7910  -14.9760   -1.6040 C   0  0  0  0  0  0  0  0  0  0  0  0
   19.2810  -14.6370   -0.3160 C   0  0  0  0  0  0  0  0  0  0  0  0
   20.1540  -14.2460    0.6880 C   0  0  0  0  0  0  0  0  0  0  0  0
   21.5320  -14.1900    0.4200 C   0  0  0  0  0  0  0  0  0  0  0  0
   22.0380  -14.5320   -0.8430 C   0  0  0  0  0  0  0  0  0  0  0  0
   21.1340  -14.9280   -1.8260 C   0  0  0  0  0  0  0  0  0  0  0  0
   21.3730  -15.3100   -3.1580 N   0  0  0  0  0  0  0  0  0  0  0  0
   22.2500  -15.3400   -3.6080 H   0  0  0  0  0  0  0  0  0  0  0  0
   20.1340  -15.6110   -3.7180 C   0  0  0  0  0  0  0  0  0  0  0  0
   16.7090  -13.3060   -3.1300 C   0  0  0  0  0  0  0  0  0  0  0  0
   17.0160  -12.1340   -2.2270 O   0  0  0  0  0  0  0  0  0  0  0  0
   18.0260  -11.3720   -1.7430 C   0  0  0  0  0  0  0  0  0  0  0  0
   19.3620  -11.5900   -1.7650 C   0  0  0  0  0  0  0  0  0  0  0  0
   20.2210  -10.4850   -1.2960 C   0  0  0  0  0  0  0  0  0  0  0  0
   19.5840   -9.2880   -0.7840 C   0  0  0  0  0  0  0  0  0  0  0  0
   18.2760   -9.1800   -0.7340 N   0  0  0  0  0  0  0  0  0  0  0  0
   17.5430  -10.2430   -1.2120 C   0  0  0  0  0  0  0  0  0  0  0  0
   21.6850  -10.4570   -1.3100 C   0  0  0  0  0  0  0  0  0  0  0  0
   22.4410  -10.8260   -0.3030 C   0  0  0  0  0  0  0  0  0  0  0  0
   23.9320  -10.7650   -0.2920 C   0  0  0  0  0  0  0  0  0  0  0  0
   24.6210  -11.9490   -0.0590 C   0  0  0  0  0  0  0  0  0  0  0  0
   26.0010  -11.8890   -0.0450 C   0  0  0  0  0  0  0  0  0  0  0  0
   26.7200  -10.7740   -0.2390 N   0  0  0  0  0  0  0  0  0  0  0  0
   26.0100   -9.6480   -0.4610 C   0  0  0  0  0  0  0  0  0  0  0  0
   24.6470   -9.5770   -0.4980 C   0  0  0  0  0  0  0  0  0  0  0  0
  1 17  1  6  0  0  0
  1  2  1  0  0  0  0
  2  4  1  0  0  0  0
  2  3  1  0  0  0  0
  5  2  1  0  0  0  0
  6  7  1  0  0  0  0
  6  1  1  0  0  0  0
  7  8  1  0  0  0  0
  8  9  1  0  0  0  0
  9 10  2  0  0  0  0
 11 10  1  0  0  0  0
 12 11  2  0  0  0  0
 13  8  2  0  0  0  0
 13 12  1  0  0  0  0
 14 13  1  0  0  0  0
 15 14  1  0  0  0  0
 16 14  1  0  0  0  0
 16  7  2  0  0  0  0
 17 18  1  0  0  0  0
 18 19  1  0  0  0  0
 19 24  1  0  0  0  0
 20 19  2  0  0  0  0
 20 21  1  0  0  0  0
 21 22  2  0  0  0  0
 22 23  1  0  0  0  0
 24 23  2  0  0  0  0
 25 21  1  0  0  0  0
 25 26  2  0  0  0  0
 26 27  1  0  0  0  0
 27 28  2  0  0  0  0
 28 29  1  0  0  0  0
 30 29  2  0  0  0  0
 31 30  1  0  0  0  0
 32 31  2  0  0  0  0
 32 27  1  0  0  0  0
M  END
>  <minimizedAffinity>
-7.40603828

$$$$

 OpenBabel12271915403D

 32 35  0  0  1  0  0  0  0  0999 V2000
   24.8570   -8.6930   -1.1220 C   0  0  1  0  0  0  0  0  0  0  0  0
   25.6070   -7.3600   -0.8450 N   0  0  0  0  0  0  0  0  0  0  0  0
   24.9830   -6.7370   -0.3790 H   0  0  0  0  0  0  0  0  0  0  0  0
   26.4470   -7.5170   -0.2660 H   0  0  0  0  0  0  0  0  0  0  0  0
   25.9090   -6.9480   -1.7090 H   0  0  0  0  0  0  0  0  0  0  0  0
   23.9530   -8.4600   -2.3380 C   0  0  0  0  0  0  0  0  0  0  0  0
   22.5440   -8.7460   -1.9600 C   0  0  0  0  0  0  0  0  0  0  0  0
   21.7010   -9.6700   -2.6260 C   0  0  0  0  0  0  0  0  0  0  0  0
   21.9330  -10.5060   -3.7580 C   0  0  0  0  0  0  0  0  0  0  0  0
   20.9250  -11.3420   -4.2140 C   0  0  0  0  0  0  0  0  0  0  0  0
   19.6850  -11.3520   -3.5510 C   0  0  0  0  0  0  0  0  0  0  0  0
   19.4570  -10.5370   -2.4320 C   0  0  0  0  0  0  0  0  0  0  0  0
   20.4950   -9.7160   -1.9960 C   0  0  0  0  0  0  0  0  0  0  0  0
   20.5250   -8.8110   -0.9210 N   0  0  0  0  0  0  0  0  0  0  0  0
   19.7810   -8.6110   -0.3050 H   0  0  0  0  0  0  0  0  0  0  0  0
   21.7950   -8.2400   -0.9130 C   0  0  0  0  0  0  0  0  0  0  0  0
   25.9880   -9.6980   -1.5310 C   0  0  0  0  0  0  0  0  0  0  0  0
   25.5880  -10.9230   -0.7420 O   0  0  0  0  0  0  0  0  0  0  0  0
   24.7510  -11.9870   -0.7410 C   0  0  0  0  0  0  0  0  0  0  0  0
   23.4020  -12.0290   -0.8500 C   0  0  0  0  0  0  0  0  0  0  0  0
   22.7890  -13.3650   -0.9790 C   0  0  0  0  0  0  0  0  0  0  0  0
   23.6500  -14.5280   -0.9080 C   0  0  0  0  0  0  0  0  0  0  0  0
   24.9470  -14.4060   -0.7330 N   0  0  0  0  0  0  0  0  0  0  0  0
   25.4480  -13.1260   -0.6450 C   0  0  0  0  0  0  0  0  0  0  0  0
   21.3700  -13.6510   -1.1970 C   0  0  0  0  0  0  0  0  0  0  0  0
   20.9180  -14.6030   -1.9790 C   0  0  0  0  0  0  0  0  0  0  0  0
   19.4750  -14.8790   -2.2390 C   0  0  0  0  0  0  0  0  0  0  0  0
   18.5420  -14.2080   -1.4570 C   0  0  0  0  0  0  0  0  0  0  0  0
   17.2070  -14.4680   -1.6980 C   0  0  0  0  0  0  0  0  0  0  0  0
   16.7490  -15.3200   -2.6270 N   0  0  0  0  0  0  0  0  0  0  0  0
   17.6900  -15.9500   -3.3610 C   0  0  0  0  0  0  0  0  0  0  0  0
   19.0370  -15.7790   -3.2200 C   0  0  0  0  0  0  0  0  0  0  0  0
  1  6  1  6  0  0  0
  1  2  1  0  0  0  0
  2  3  1  0  0  0  0
  2  4  1  0  0  0  0
  5  2  1  0  0  0  0
  6  7  1  0  0  0  0
  7 16  2  0  0  0  0
  8 13  2  0  0  0  0
  8  7  1  0  0  0  0
  9  8  1  0  0  0  0
 10  9  2  0  0  0  0
 10 11  1  0  0  0  0
 11 12  2  0  0  0  0
 12 13  1  0  0  0  0
 13 14  1  0  0  0  0
 14 16  1  0  0  0  0
 14 15  1  0  0  0  0
 17  1  1  0  0  0  0
 17 18  1  0  0  0  0
 18 19  1  0  0  0  0
 19 24  1  0  0  0  0
 20 19  2  0  0  0  0
 21 22  2  0  0  0  0
 21 20  1  0  0  0  0
 22 23  1  0  0  0  0
 23 24  2  0  0  0  0
 25 21  1  0  0  0  0
 26 25  2  0  0  0  0
 27 26  1  0  0  0  0
 27 28  2  0  0  0  0
 29 28  1  0  0  0  0
 30 29  2  0  0  0  0
 31 32  2  0  0  0  0
 31 30  1  0  0  0  0
 32 27  1  0  0  0  0
M  END
>  <minimizedAffinity>
-7.29807186

$$$$

 OpenBabel12271915403D

 32 35  0  0  1  0  0  0  0  0999 V2000
   26.7470  -10.5480   -2.4790 C   0  0  1  0  0  0  0  0  0  0  0  0
   28.2740  -10.7200   -2.7130 N   0  0  0  0  0  0  0  0  0  0  0  0
   28.5240  -11.6600   -2.4940 H   0  0  0  0  0  0  0  0  0  0  0  0
   28.5280  -10.5050   -3.6910 H   0  0  0  0  0  0  0  0  0  0  0  0
   28.7860  -10.0900   -2.1230 H   0  0  0  0  0  0  0  0  0  0  0  0
   26.5350  -10.4040   -0.9670 C   0  0  0  0  0  0  0  0  0  0  0  0
   25.0880  -10.5600   -0.6610 C   0  0  0  0  0  0  0  0  0  0  0  0
   24.3820  -11.7890   -0.7010 C   0  0  0  0  0  0  0  0  0  0  0  0
   24.8110  -13.1080   -1.0310 C   0  0  0  0  0  0  0  0  0  0  0  0
   23.9070  -14.1580   -0.9820 C   0  0  0  0  0  0  0  0  0  0  0  0
   22.5760  -13.9050   -0.6070 C   0  0  0  0  0  0  0  0  0  0  0  0
   22.1530  -12.6090   -0.2730 C   0  0  0  0  0  0  0  0  0  0  0  0
   23.0900  -11.5790   -0.3240 C   0  0  0  0  0  0  0  0  0  0  0  0
   22.9280  -10.2100   -0.0510 N   0  0  0  0  0  0  0  0  0  0  0  0
   22.0900   -9.7640    0.2150 H   0  0  0  0  0  0  0  0  0  0  0  0
   24.1690   -9.6110   -0.2510 C   0  0  0  0  0  0  0  0  0  0  0  0
   26.4000   -9.1810   -3.1600 C   0  0  0  0  0  0  0  0  0  0  0  0
   25.1650   -9.5520   -3.9470 O   0  0  0  0  0  0  0  0  0  0  0  0
   23.8150   -9.6260   -3.8770 C   0  0  0  0  0  0  0  0  0  0  0  0
   23.0060  -10.7120   -3.8800 C   0  0  0  0  0  0  0  0  0  0  0  0
   21.5720  -10.4700   -3.6260 C   0  0  0  0  0  0  0  0  0  0  0  0
   21.1220   -9.1020   -3.4650 C   0  0  0  0  0  0  0  0  0  0  0  0
   21.9630   -8.0950   -3.5420 N   0  0  0  0  0  0  0  0  0  0  0  0
   23.2880   -8.4020   -3.7580 C   0  0  0  0  0  0  0  0  0  0  0  0
   20.5290  -11.4900   -3.4950 C   0  0  0  0  0  0  0  0  0  0  0  0
   20.7600  -12.7790   -3.4190 C   0  0  0  0  0  0  0  0  0  0  0  0
   19.7050  -13.8290   -3.3250 C   0  0  0  0  0  0  0  0  0  0  0  0
   18.3980  -13.4540   -3.6130 C   0  0  0  0  0  0  0  0  0  0  0  0
   17.4220  -14.4280   -3.5220 C   0  0  0  0  0  0  0  0  0  0  0  0
   17.6460  -15.7040   -3.1750 N   0  0  0  0  0  0  0  0  0  0  0  0
   18.9290  -16.0230   -2.9030 C   0  0  0  0  0  0  0  0  0  0  0  0
   19.9800  -15.1530   -2.9570 C   0  0  0  0  0  0  0  0  0  0  0  0
  1 17  1  6  0  0  0
  1  6  1  0  0  0  0
  2  3  1  0  0  0  0
  2  1  1  0  0  0  0
  2  5  1  0  0  0  0
  4  2  1  0  0  0  0
  6  7  1  0  0  0  0
  7 16  2  0  0  0  0
  8  7  1  0  0  0  0
  8 13  2  0  0  0  0
  9 10  2  0  0  0  0
  9  8  1  0  0  0  0
 10 11  1  0  0  0  0
 11 12  2  0  0  0  0
 13 12  1  0  0  0  0
 13 14  1  0  0  0  0
 14 15  1  0  0  0  0
 16 14  1  0  0  0  0
 18 19  1  0  0  0  0
 18 17  1  0  0  0  0
 19 24  1  0  0  0  0
 20 19  2  0  0  0  0
 20 21  1  0  0  0  0
 21 25  1  0  0  0  0
 21 22  2  0  0  0  0
 23 22  1  0  0  0  0
 24 23  2  0  0  0  0
 25 26  2  0  0  0  0
 26 27  1  0  0  0  0
 27 32  2  0  0  0  0
 28 29  2  0  0  0  0
 28 27  1  0  0  0  0
 29 30  1  0  0  0  0
 30 31  2  0  0  0  0
 32 31  1  0  0  0  0
M  END
>  <minimizedAffinity>
-7.29513931

$$$$

 OpenBabel12271915403D

 32 35  0  0  1  0  0  0  0  0999 V2000
   19.5500  -12.5190   -1.2900 C   0  0  1  0  0  0  0  0  0  0  0  0
   18.1770  -11.9760   -0.8010 N   0  0  0  0  0  0  0  0  0  0  0  0
   18.3210  -11.4710    0.0470 H   0  0  0  0  0  0  0  0  0  0  0  0
   17.7450  -11.3620   -1.5090 H   0  0  0  0  0  0  0  0  0  0  0  0
   17.5450  -12.7370   -0.6360 H   0  0  0  0  0  0  0  0  0  0  0  0
   19.8760  -13.7540   -0.4410 C   0  0  0  0  0  0  0  0  0  0  0  0
   21.1610  -14.3390   -0.9060 C   0  0  0  0  0  0  0  0  0  0  0  0
   22.4410  -13.7910   -0.6390 C   0  0  0  0  0  0  0  0  0  0  0  0
   22.8310  -12.6190    0.0740 C   0  0  0  0  0  0  0  0  0  0  0  0
   24.1760  -12.3060    0.2000 C   0  0  0  0  0  0  0  0  0  0  0  0
   25.1380  -13.1520   -0.3780 C   0  0  0  0  0  0  0  0  0  0  0  0
   24.7580  -14.3110   -1.0730 C   0  0  0  0  0  0  0  0  0  0  0  0
   23.3990  -14.5990   -1.1740 C   0  0  0  0  0  0  0  0  0  0  0  0
   22.7590  -15.6760   -1.8120 N   0  0  0  0  0  0  0  0  0  0  0  0
   23.2000  -16.4030   -2.3110 H   0  0  0  0  0  0  0  0  0  0  0  0
   21.3910  -15.5000   -1.6220 C   0  0  0  0  0  0  0  0  0  0  0  0
   19.2820  -12.9860   -2.7610 C   0  0  0  0  0  0  0  0  0  0  0  0
   19.9040  -11.8530   -3.5440 O   0  0  0  0  0  0  0  0  0  0  0  0
   21.0610  -11.1770   -3.7400 C   0  0  0  0  0  0  0  0  0  0  0  0
   22.2840  -11.3770   -3.1950 C   0  0  0  0  0  0  0  0  0  0  0  0
   23.3920  -10.5660   -3.7380 C   0  0  0  0  0  0  0  0  0  0  0  0
   23.0880   -9.5750   -4.7510 C   0  0  0  0  0  0  0  0  0  0  0  0
   21.8590   -9.3950   -5.1810 N   0  0  0  0  0  0  0  0  0  0  0  0
   20.8840  -10.2060   -4.6430 C   0  0  0  0  0  0  0  0  0  0  0  0
   24.8050  -10.6700   -3.3700 C   0  0  0  0  0  0  0  0  0  0  0  0
   25.3570  -10.0330   -2.3650 C   0  0  0  0  0  0  0  0  0  0  0  0
   26.8030  -10.1000   -2.0040 C   0  0  0  0  0  0  0  0  0  0  0  0
   27.7240  -10.1090   -3.0440 C   0  0  0  0  0  0  0  0  0  0  0  0
   29.0630  -10.1750   -2.7070 C   0  0  0  0  0  0  0  0  0  0  0  0
   29.5330  -10.2330   -1.4520 N   0  0  0  0  0  0  0  0  0  0  0  0
   28.6030  -10.2220   -0.4750 C   0  0  0  0  0  0  0  0  0  0  0  0
   27.2550  -10.1610   -0.6790 C   0  0  0  0  0  0  0  0  0  0  0  0
  1 17  1  6  0  0  0
  1  2  1  0  0  0  0
  1  6  1  0  0  0  0
  2  5  1  0  0  0  0
  2  3  1  0  0  0  0
  4  2  1  0  0  0  0
  7  8  1  0  0  0  0
  7  6  1  0  0  0  0
  8  9  2  0  0  0  0
  9 10  1  0  0  0  0
 11 10  2  0  0  0  0
 12 11  1  0  0  0  0
 13 12  2  0  0  0  0
 13  8  1  0  0  0  0
 14 16  1  0  0  0  0
 14 13  1  0  0  0  0
 15 14  1  0  0  0  0
 16  7  2  0  0  0  0
 18 17  1  0  0  0  0
 19 18  1  0  0  0  0
 19 20  1  0  0  0  0
 21 25  1  0  0  0  0
 21 20  2  0  0  0  0
 22 21  1  0  0  0  0
 23 22  2  0  0  0  0
 23 24  1  0  0  0  0
 24 19  2  0  0  0  0
 25 26  2  0  0  0  0
 26 27  1  0  0  0  0
 27 32  2  0  0  0  0
 28 29  2  0  0  0  0
 28 27  1  0  0  0  0
 29 30  1  0  0  0  0
 30 31  2  0  0  0  0
 32 31  1  0  0  0  0
M  END
>  <minimizedAffinity>
-7.24955559

$$$$
