
 OpenBabel12271915413D

 30 33  0  0  1  0  0  0  0  0999 V2000
   20.2040  -13.7610   -0.6650 C   0  0  1  0  0  0  0  0  0  0  0  0
   21.2570  -14.6890   -0.2680 N   0  0  0  0  0  0  0  0  0  0  0  0
   21.6190  -15.2340   -1.0230 H   0  0  0  0  0  0  0  0  0  0  0  0
   22.3030  -13.7960    0.1280 O   0  0  0  0  0  0  0  0  0  0  0  0
   22.3520  -12.7230   -0.8010 C   0  0  2  0  0  0  0  0  0  0  0  0
   23.4570  -13.0530   -1.7940 C   0  0  1  0  0  0  0  0  0  0  0  0
   23.8490  -11.7980   -2.5530 C   0  0  2  0  0  0  0  0  0  0  0  0
   24.3790  -10.7460   -1.5520 C   0  0  1  0  0  0  0  0  0  0  0  0
   23.5320  -10.6340   -0.2940 C   0  0  2  0  0  0  0  0  0  0  0  0
   22.4610  -11.5010   -0.1270 O   0  0  0  0  0  0  0  0  0  0  0  0
   20.9560  -12.7110   -1.4530 C   0  0  0  0  0  0  0  0  0  0  0  0
   19.1150  -14.4040   -1.4830 C   0  0  0  0  0  0  0  0  0  0  0  0
   17.8190  -13.9460   -1.3040 C   0  0  0  0  0  0  0  0  0  0  0  0
   16.7610  -14.5050   -1.9990 C   0  0  0  0  0  0  0  0  0  0  0  0
   17.0030  -15.5480   -2.9110 C   0  0  0  0  0  0  0  0  0  0  0  0
   15.9440  -16.1500   -3.6170 C   0  0  0  0  0  0  0  0  0  0  0  0
   16.1980  -17.1810   -4.5080 C   0  0  0  0  0  0  0  0  0  0  0  0
   17.4830  -17.6400   -4.7210 C   0  0  0  0  0  0  0  0  0  0  0  0
   18.5340  -17.0590   -4.0340 C   0  0  0  0  0  0  0  0  0  0  0  0
   18.3020  -16.0100   -3.1230 C   0  0  0  0  0  0  0  0  0  0  0  0
   19.3560  -15.4160   -2.4070 C   0  0  0  0  0  0  0  0  0  0  0  0
   22.7500  -11.3160   -3.2940 O   0  0  0  0  0  0  0  0  0  0  0  0
   22.9130  -10.3760   -3.5430 H   0  0  0  0  0  0  0  0  0  0  0  0
   24.5940  -13.5970   -1.1440 O   0  0  0  0  0  0  0  0  0  0  0  0
   24.4650  -13.5440   -0.1680 H   0  0  0  0  0  0  0  0  0  0  0  0
   25.7270  -11.0320   -1.1990 O   0  0  0  0  0  0  0  0  0  0  0  0
   26.3030  -11.0070   -1.9840 H   0  0  0  0  0  0  0  0  0  0  0  0
   22.9260   -9.2100   -0.2000 C   0  0  0  0  0  0  0  0  0  0  0  0
   23.8670   -8.2080   -0.5610 O   0  0  0  0  0  0  0  0  0  0  0  0
   23.4400   -7.5600   -1.1660 H   0  0  0  0  0  0  0  0  0  0  0  0
  1 12  1  6  0  0  0
  1  2  1  0  0  0  0
  2  4  1  0  0  0  0
  3  2  1  0  0  0  0
  5 11  1  6  0  0  0
  5 10  1  0  0  0  0
  5  4  1  0  0  0  0
  6 24  1  0  0  0  0
  6  5  1  1  0  0  0
  7 22  1  1  0  0  0
  7  6  1  0  0  0  0
  7  8  1  0  0  0  0
  8 26  1  1  0  0  0
  8  9  1  0  0  0  0
  9 28  1  6  0  0  0
  9 10  1  0  0  0  0
 11  1  1  0  0  0  0
 12 13  1  0  0  0  0
 14 13  2  0  0  0  0
 15 14  1  0  0  0  0
 16 15  2  0  0  0  0
 17 16  1  0  0  0  0
 18 17  2  0  0  0  0
 18 19  1  0  0  0  0
 19 20  2  0  0  0  0
 20 15  1  0  0  0  0
 20 21  1  0  0  0  0
 21 12  2  0  0  0  0
 23 22  1  0  0  0  0
 24 25  1  0  0  0  0
 27 26  1  0  0  0  0
 29 28  1  0  0  0  0
 30 29  1  0  0  0  0
M  END
>  <minimizedAffinity>
-10.0809879

$$$$

 OpenBabel12271915413D

 30 33  0  0  1  0  0  0  0  0999 V2000
   20.4860  -13.1090   -0.9530 C   0  0  1  0  0  0  0  0  0  0  0  0
   21.7500  -13.5500   -0.3750 N   0  0  0  0  0  0  0  0  0  0  0  0
   22.3680  -13.9760   -1.0350 H   0  0  0  0  0  0  0  0  0  0  0  0
   22.3510  -12.3080    0.0030 O   0  0  0  0  0  0  0  0  0  0  0  0
   22.1140  -11.3630   -1.0320 C   0  0  2  0  0  0  0  0  0  0  0  0
   23.3690  -11.3310   -1.8920 C   0  0  1  0  0  0  0  0  0  0  0  0
   23.3650  -10.0780   -2.7510 C   0  0  2  0  0  0  0  0  0  0  0  0
   23.3620   -8.8350   -1.8310 C   0  0  1  0  0  0  0  0  0  0  0  0
   22.3940   -8.9540   -0.6640 C   0  0  2  0  0  0  0  0  0  0  0  0
   21.6980  -10.1420   -0.4880 O   0  0  0  0  0  0  0  0  0  0  0  0
   20.8920  -11.9160   -1.7880 C   0  0  0  0  0  0  0  0  0  0  0  0
   19.8020  -14.1670   -1.7790 C   0  0  0  0  0  0  0  0  0  0  0  0
   20.6020  -15.0990   -2.4220 C   0  0  0  0  0  0  0  0  0  0  0  0
   20.0500  -16.0850   -3.2210 C   0  0  0  0  0  0  0  0  0  0  0  0
   18.6540  -16.1530   -3.3760 C   0  0  0  0  0  0  0  0  0  0  0  0
   18.0650  -17.1320   -4.1990 C   0  0  0  0  0  0  0  0  0  0  0  0
   16.6880  -17.1820   -4.3450 C   0  0  0  0  0  0  0  0  0  0  0  0
   15.8670  -16.2790   -3.6970 C   0  0  0  0  0  0  0  0  0  0  0  0
   16.4320  -15.3110   -2.8860 C   0  0  0  0  0  0  0  0  0  0  0  0
   17.8280  -15.2390   -2.7200 C   0  0  0  0  0  0  0  0  0  0  0  0
   18.4200  -14.2540   -1.9100 C   0  0  0  0  0  0  0  0  0  0  0  0
   22.2570  -10.0930   -3.6240 O   0  0  0  0  0  0  0  0  0  0  0  0
   22.0970   -9.1800   -3.9600 H   0  0  0  0  0  0  0  0  0  0  0  0
   24.5430  -11.3670   -1.1000 O   0  0  0  0  0  0  0  0  0  0  0  0
   24.2950  -11.2950   -0.1480 H   0  0  0  0  0  0  0  0  0  0  0  0
   24.6720   -8.5760   -1.3440 O   0  0  0  0  0  0  0  0  0  0  0  0
   25.2860   -8.3970   -2.0790 H   0  0  0  0  0  0  0  0  0  0  0  0
   21.3090   -7.8530   -0.7740 C   0  0  0  0  0  0  0  0  0  0  0  0
   20.1680   -8.1520    0.0190 O   0  0  0  0  0  0  0  0  0  0  0  0
   19.8960   -7.3490    0.5190 H   0  0  0  0  0  0  0  0  0  0  0  0
  1 12  1  6  0  0  0
  1  2  1  0  0  0  0
  2  4  1  0  0  0  0
  3  2  1  0  0  0  0
  5 11  1  6  0  0  0
  5 10  1  0  0  0  0
  5  4  1  0  0  0  0
  6 24  1  0  0  0  0
  6  5  1  1  0  0  0
  7 22  1  1  0  0  0
  7  6  1  0  0  0  0
  7  8  1  0  0  0  0
  8 26  1  1  0  0  0
  8  9  1  0  0  0  0
  9 28  1  6  0  0  0
  9 10  1  0  0  0  0
 11  1  1  0  0  0  0
 13 12  2  0  0  0  0
 14 13  1  0  0  0  0
 15 14  2  0  0  0  0
 15 20  1  0  0  0  0
 16 15  1  0  0  0  0
 17 16  2  0  0  0  0
 17 18  1  0  0  0  0
 18 19  2  0  0  0  0
 19 20  1  0  0  0  0
 20 21  2  0  0  0  0
 21 12  1  0  0  0  0
 23 22  1  0  0  0  0
 24 25  1  0  0  0  0
 27 26  1  0  0  0  0
 28 29  1  0  0  0  0
 29 30  1  0  0  0  0
M  END
>  <minimizedAffinity>
-9.23082733

$$$$

 OpenBabel12271915413D

 30 33  0  0  1  0  0  0  0  0999 V2000
   21.5550  -14.3450   -0.6390 C   0  0  1  0  0  0  0  0  0  0  0  0
   20.5750  -13.8600    0.3270 N   0  0  0  0  0  0  0  0  0  0  0  0
   20.4470  -12.8700    0.3080 H   0  0  0  0  0  0  0  0  0  0  0  0
   19.3630  -14.4390   -0.1670 O   0  0  0  0  0  0  0  0  0  0  0  0
   19.3610  -14.3310   -1.5830 C   0  0  2  0  0  0  0  0  0  0  0  0
   18.5290  -13.1030   -1.9280 C   0  0  1  0  0  0  0  0  0  0  0  0
   18.1350  -13.1520   -3.3940 C   0  0  2  0  0  0  0  0  0  0  0  0
   17.2820  -14.4160   -3.6470 C   0  0  1  0  0  0  0  0  0  0  0  0
   17.8380  -15.6610   -2.9730 C   0  0  2  0  0  0  0  0  0  0  0  0
   18.9580  -15.5410   -2.1620 O   0  0  0  0  0  0  0  0  0  0  0  0
   20.8440  -14.1650   -1.9620 C   0  0  0  0  0  0  0  0  0  0  0  0
   22.8610  -13.5950   -0.5970 C   0  0  0  0  0  0  0  0  0  0  0  0
   24.0310  -14.3340   -0.6640 C   0  0  0  0  0  0  0  0  0  0  0  0
   25.2690  -13.7200   -0.6030 C   0  0  0  0  0  0  0  0  0  0  0  0
   25.3450  -12.3210   -0.4830 C   0  0  0  0  0  0  0  0  0  0  0  0
   26.5910  -11.6690   -0.3980 C   0  0  0  0  0  0  0  0  0  0  0  0
   26.6490  -10.2900   -0.2730 C   0  0  0  0  0  0  0  0  0  0  0  0
   25.4970   -9.5290   -0.2260 C   0  0  0  0  0  0  0  0  0  0  0  0
   24.2660  -10.1550   -0.3070 C   0  0  0  0  0  0  0  0  0  0  0  0
   24.1800  -11.5540   -0.4350 C   0  0  0  0  0  0  0  0  0  0  0  0
   22.9380  -12.2090   -0.5060 C   0  0  0  0  0  0  0  0  0  0  0  0
   19.2880  -13.1200   -4.2070 O   0  0  0  0  0  0  0  0  0  0  0  0
   19.0550  -13.4360   -5.1110 H   0  0  0  0  0  0  0  0  0  0  0  0
   17.3670  -13.0190   -1.1200 O   0  0  0  0  0  0  0  0  0  0  0  0
   17.2890  -13.8380   -0.5780 H   0  0  0  0  0  0  0  0  0  0  0  0
   15.9410  -14.2010   -3.2250 O   0  0  0  0  0  0  0  0  0  0  0  0
   15.5350  -13.4680   -3.7230 H   0  0  0  0  0  0  0  0  0  0  0  0
   18.2200  -16.7080   -4.0490 C   0  0  0  0  0  0  0  0  0  0  0  0
   17.0930  -17.1230   -4.8090 O   0  0  0  0  0  0  0  0  0  0  0  0
   17.3260  -17.1290   -5.7650 H   0  0  0  0  0  0  0  0  0  0  0  0
  1 12  1  6  0  0  0
  1  2  1  0  0  0  0
  3  2  1  0  0  0  0
  4  2  1  0  0  0  0
  5 11  1  6  0  0  0
  5  4  1  0  0  0  0
  6  5  1  1  0  0  0
  6 24  1  0  0  0  0
  7 22  1  6  0  0  0
  7  6  1  0  0  0  0
  8  7  1  0  0  0  0
  8 26  1  1  0  0  0
  8  9  1  0  0  0  0
  9 28  1  6  0  0  0
  9 10  1  0  0  0  0
 10  5  1  0  0  0  0
 11  1  1  0  0  0  0
 12 21  2  0  0  0  0
 13 14  2  0  0  0  0
 13 12  1  0  0  0  0
 14 15  1  0  0  0  0
 15 20  2  0  0  0  0
 15 16  1  0  0  0  0
 16 17  2  0  0  0  0
 17 18  1  0  0  0  0
 19 18  2  0  0  0  0
 20 19  1  0  0  0  0
 21 20  1  0  0  0  0
 23 22  1  0  0  0  0
 24 25  1  0  0  0  0
 27 26  1  0  0  0  0
 29 28  1  0  0  0  0
 30 29  1  0  0  0  0
M  END
>  <minimizedAffinity>
-9.14217091

$$$$

 OpenBabel12271915413D

 30 33  0  0  1  0  0  0  0  0999 V2000
   21.8410  -14.1310   -1.1480 C   0  0  1  0  0  0  0  0  0  0  0  0
   21.0150  -13.7430   -0.0100 N   0  0  0  0  0  0  0  0  0  0  0  0
   20.8130  -12.7650    0.0250 H   0  0  0  0  0  0  0  0  0  0  0  0
   19.7800  -14.4030   -0.3050 O   0  0  0  0  0  0  0  0  0  0  0  0
   19.5200  -14.2680   -1.6940 C   0  0  2  0  0  0  0  0  0  0  0  0
   18.5530  -13.1020   -1.8490 C   0  0  1  0  0  0  0  0  0  0  0  0
   17.9120  -13.1520   -3.2240 C   0  0  2  0  0  0  0  0  0  0  0  0
   17.1210  -14.4740   -3.3660 C   0  0  1  0  0  0  0  0  0  0  0  0
   17.8770  -15.6840   -2.8400 C   0  0  2  0  0  0  0  0  0  0  0  0
   19.1110  -15.4940   -2.2340 O   0  0  0  0  0  0  0  0  0  0  0  0
   20.8970  -13.9810   -2.3200 C   0  0  0  0  0  0  0  0  0  0  0  0
   23.0760  -13.2830   -1.3090 C   0  0  0  0  0  0  0  0  0  0  0  0
   23.9330  -13.1810   -0.2250 C   0  0  0  0  0  0  0  0  0  0  0  0
   25.0730  -12.3990   -0.2860 C   0  0  0  0  0  0  0  0  0  0  0  0
   25.3760  -11.7050   -1.4710 C   0  0  0  0  0  0  0  0  0  0  0  0
   26.5190  -10.8860   -1.5560 C   0  0  0  0  0  0  0  0  0  0  0  0
   26.8010  -10.2040   -2.7300 C   0  0  0  0  0  0  0  0  0  0  0  0
   25.9750  -10.3070   -3.8320 C   0  0  0  0  0  0  0  0  0  0  0  0
   24.8480  -11.1080   -3.7630 C   0  0  0  0  0  0  0  0  0  0  0  0
   24.5400  -11.8120   -2.5820 C   0  0  0  0  0  0  0  0  0  0  0  0
   23.3930  -12.6200   -2.4900 C   0  0  0  0  0  0  0  0  0  0  0  0
   18.8970  -13.0150   -4.2240 O   0  0  0  0  0  0  0  0  0  0  0  0
   18.5320  -13.3300   -5.0840 H   0  0  0  0  0  0  0  0  0  0  0  0
   17.5490  -13.1240   -0.8480 O   0  0  0  0  0  0  0  0  0  0  0  0
   17.6280  -13.9570   -0.3280 H   0  0  0  0  0  0  0  0  0  0  0  0
   15.8640  -14.3710   -2.7100 O   0  0  0  0  0  0  0  0  0  0  0  0
   15.3240  -13.6620   -3.1050 H   0  0  0  0  0  0  0  0  0  0  0  0
   18.1380  -16.6780   -4.0010 C   0  0  0  0  0  0  0  0  0  0  0  0
   16.9580  -16.9460   -4.7460 O   0  0  0  0  0  0  0  0  0  0  0  0
   17.1600  -16.9000   -5.7080 H   0  0  0  0  0  0  0  0  0  0  0  0
  1 12  1  6  0  0  0
  1  2  1  0  0  0  0
  2  3  1  0  0  0  0
  4  2  1  0  0  0  0
  5 11  1  6  0  0  0
  5  4  1  0  0  0  0
  6  5  1  1  0  0  0
  6 24  1  0  0  0  0
  7 22  1  6  0  0  0
  7  6  1  0  0  0  0
  8  7  1  0  0  0  0
  8  9  1  0  0  0  0
  8 26  1  1  0  0  0
  9 28  1  6  0  0  0
  9 10  1  0  0  0  0
 10  5  1  0  0  0  0
 11  1  1  0  0  0  0
 12 13  2  0  0  0  0
 14 13  1  0  0  0  0
 15 14  2  0  0  0  0
 16 15  1  0  0  0  0
 17 16  2  0  0  0  0
 18 19  2  0  0  0  0
 18 17  1  0  0  0  0
 19 20  1  0  0  0  0
 20 21  2  0  0  0  0
 20 15  1  0  0  0  0
 21 12  1  0  0  0  0
 23 22  1  0  0  0  0
 24 25  1  0  0  0  0
 27 26  1  0  0  0  0
 29 28  1  0  0  0  0
 30 29  1  0  0  0  0
M  END
>  <minimizedAffinity>
-9.00917721

$$$$

 OpenBabel12271915413D

 30 33  0  0  1  0  0  0  0  0999 V2000
   21.6800  -12.8180   -0.9070 C   0  0  1  0  0  0  0  0  0  0  0  0
   22.8020  -13.4800   -0.2510 N   0  0  0  0  0  0  0  0  0  0  0  0
   23.2940  -14.1180   -0.8410 H   0  0  0  0  0  0  0  0  0  0  0  0
   23.6890  -12.3830   -0.0080 O   0  0  0  0  0  0  0  0  0  0  0  0
   23.6840  -11.5410   -1.1510 C   0  0  2  0  0  0  0  0  0  0  0  0
   24.9050  -11.9170   -1.9790 C   0  0  1  0  0  0  0  0  0  0  0  0
   25.2010  -10.8140   -2.9790 C   0  0  2  0  0  0  0  0  0  0  0  0
   25.5060   -9.5060   -2.2130 C   0  0  1  0  0  0  0  0  0  0  0  0
   24.5440   -9.2460   -1.0630 C   0  0  2  0  0  0  0  0  0  0  0  0
   23.5810  -10.1990   -0.7660 O   0  0  0  0  0  0  0  0  0  0  0  0
   22.3600  -11.8680   -1.8670 C   0  0  0  0  0  0  0  0  0  0  0  0
   20.7550  -13.7700   -1.6190 C   0  0  0  0  0  0  0  0  0  0  0  0
   21.3270  -14.7420   -2.4250 C   0  0  0  0  0  0  0  0  0  0  0  0
   20.5430  -15.6360   -3.1330 C   0  0  0  0  0  0  0  0  0  0  0  0
   19.1430  -15.5670   -3.0260 C   0  0  0  0  0  0  0  0  0  0  0  0
   18.3190  -16.4500   -3.7500 C   0  0  0  0  0  0  0  0  0  0  0  0
   16.9400  -16.3660   -3.6390 C   0  0  0  0  0  0  0  0  0  0  0  0
   16.3460  -15.4210   -2.8250 C   0  0  0  0  0  0  0  0  0  0  0  0
   17.1430  -14.5450   -2.1090 C   0  0  0  0  0  0  0  0  0  0  0  0
   18.5460  -14.6110   -2.2040 C   0  0  0  0  0  0  0  0  0  0  0  0
   19.3710  -13.7220   -1.4920 C   0  0  0  0  0  0  0  0  0  0  0  0
   24.1180  -10.6640   -3.8710 O   0  0  0  0  0  0  0  0  0  0  0  0
   24.1840   -9.7870   -4.3160 H   0  0  0  0  0  0  0  0  0  0  0  0
   26.0390  -12.1410   -1.1600 O   0  0  0  0  0  0  0  0  0  0  0  0
   25.8210  -11.8980   -0.2300 H   0  0  0  0  0  0  0  0  0  0  0  0
   26.8420   -9.5160   -1.7280 O   0  0  0  0  0  0  0  0  0  0  0  0
   27.4770   -9.5790   -2.4640 H   0  0  0  0  0  0  0  0  0  0  0  0
   23.7590   -7.9360   -1.3280 C   0  0  0  0  0  0  0  0  0  0  0  0
   22.3670   -8.1730   -1.4820 O   0  0  0  0  0  0  0  0  0  0  0  0
   21.8610   -7.5120   -0.9570 H   0  0  0  0  0  0  0  0  0  0  0  0
  1 12  1  6  0  0  0
  1  2  1  0  0  0  0
  2  4  1  0  0  0  0
  3  2  1  0  0  0  0
  5 11  1  6  0  0  0
  5 10  1  0  0  0  0
  5  4  1  0  0  0  0
  6 24  1  0  0  0  0
  6  5  1  1  0  0  0
  7 22  1  6  0  0  0
  7  8  1  0  0  0  0
  7  6  1  0  0  0  0
  8 26  1  1  0  0  0
  8  9  1  0  0  0  0
  9 28  1  6  0  0  0
  9 10  1  0  0  0  0
 11  1  1  0  0  0  0
 12 21  1  0  0  0  0
 13 12  2  0  0  0  0
 14 15  2  0  0  0  0
 14 13  1  0  0  0  0
 15 20  1  0  0  0  0
 16 17  2  0  0  0  0
 16 15  1  0  0  0  0
 17 18  1  0  0  0  0
 18 19  2  0  0  0  0
 20 19  1  0  0  0  0
 20 21  2  0  0  0  0
 23 22  1  0  0  0  0
 24 25  1  0  0  0  0
 27 26  1  0  0  0  0
 29 28  1  0  0  0  0
 29 30  1  0  0  0  0
M  END
>  <minimizedAffinity>
-8.77103329

$$$$

 OpenBabel12271915413D

 30 33  0  0  1  0  0  0  0  0999 V2000
   23.7790  -12.2820   -1.0190 C   0  0  1  0  0  0  0  0  0  0  0  0
   25.0890  -12.9250   -1.0330 N   0  0  0  0  0  0  0  0  0  0  0  0
   25.2800  -13.4300   -1.8730 H   0  0  0  0  0  0  0  0  0  0  0  0
   25.9700  -11.7970   -1.0250 O   0  0  0  0  0  0  0  0  0  0  0  0
   25.4420  -10.8100   -1.8990 C   0  0  2  0  0  0  0  0  0  0  0  0
   26.1760  -10.9590   -3.2240 C   0  0  1  0  0  0  0  0  0  0  0  0
   25.9770   -9.7070   -4.0600 C   0  0  2  0  0  0  0  0  0  0  0  0
   26.5640   -8.4940   -3.3010 C   0  0  1  0  0  0  0  0  0  0  0  0
   26.2070   -8.4810   -1.8230 C   0  0  2  0  0  0  0  0  0  0  0  0
   25.4940   -9.5480   -1.2950 O   0  0  0  0  0  0  0  0  0  0  0  0
   23.9450  -11.1520   -2.0110 C   0  0  0  0  0  0  0  0  0  0  0  0
   22.6540  -13.2070   -1.4020 C   0  0  0  0  0  0  0  0  0  0  0  0
   22.9860  -14.4150   -1.9940 C   0  0  0  0  0  0  0  0  0  0  0  0
   22.0070  -15.3060   -2.4000 C   0  0  0  0  0  0  0  0  0  0  0  0
   20.6520  -14.9870   -2.1980 C   0  0  0  0  0  0  0  0  0  0  0  0
   19.6340  -15.8650   -2.6180 C   0  0  0  0  0  0  0  0  0  0  0  0
   18.3030  -15.5340   -2.4180 C   0  0  0  0  0  0  0  0  0  0  0  0
   17.9460  -14.3450   -1.8100 C   0  0  0  0  0  0  0  0  0  0  0  0
   18.9360  -13.4730   -1.3930 C   0  0  0  0  0  0  0  0  0  0  0  0
   20.2950  -13.7870   -1.5840 C   0  0  0  0  0  0  0  0  0  0  0  0
   21.3140  -12.9070   -1.1780 C   0  0  0  0  0  0  0  0  0  0  0  0
   24.6080   -9.5340   -4.3550 O   0  0  0  0  0  0  0  0  0  0  0  0
   24.4530   -8.6020   -4.6360 H   0  0  0  0  0  0  0  0  0  0  0  0
   27.5610  -11.1910   -3.0280 O   0  0  0  0  0  0  0  0  0  0  0  0
   27.7720  -11.0970   -2.0690 H   0  0  0  0  0  0  0  0  0  0  0  0
   27.9770   -8.4510   -3.4540 O   0  0  0  0  0  0  0  0  0  0  0  0
   28.2210   -8.3560   -4.3930 H   0  0  0  0  0  0  0  0  0  0  0  0
   25.3600   -7.2220   -1.5040 C   0  0  0  0  0  0  0  0  0  0  0  0
   24.1900   -7.5430   -0.7640 O   0  0  0  0  0  0  0  0  0  0  0  0
   24.0880   -6.9080   -0.0200 H   0  0  0  0  0  0  0  0  0  0  0  0
  1 12  1  6  0  0  0
  2  4  1  0  0  0  0
  2  1  1  0  0  0  0
  3  2  1  0  0  0  0
  5 11  1  6  0  0  0
  5 10  1  0  0  0  0
  5  4  1  0  0  0  0
  6 24  1  0  0  0  0
  6  5  1  1  0  0  0
  7 22  1  1  0  0  0
  7  8  1  0  0  0  0
  7  6  1  0  0  0  0
  8 26  1  1  0  0  0
  8  9  1  0  0  0  0
  9 28  1  6  0  0  0
  9 10  1  0  0  0  0
 11  1  1  0  0  0  0
 12 21  1  0  0  0  0
 13 12  2  0  0  0  0
 14 15  2  0  0  0  0
 14 13  1  0  0  0  0
 15 20  1  0  0  0  0
 16 17  2  0  0  0  0
 16 15  1  0  0  0  0
 17 18  1  0  0  0  0
 18 19  2  0  0  0  0
 20 19  1  0  0  0  0
 20 21  2  0  0  0  0
 23 22  1  0  0  0  0
 24 25  1  0  0  0  0
 27 26  1  0  0  0  0
 28 29  1  0  0  0  0
 29 30  1  0  0  0  0
M  END
>  <minimizedAffinity>
-8.49737072

$$$$

 OpenBabel12271915413D

 30 33  0  0  1  0  0  0  0  0999 V2000
   21.7260  -11.5660   -2.9180 C   0  0  1  0  0  0  0  0  0  0  0  0
   21.2820  -10.5410   -1.9790 N   0  0  0  0  0  0  0  0  0  0  0  0
   21.0710  -10.8920   -1.0690 H   0  0  0  0  0  0  0  0  0  0  0  0
   22.4590   -9.7370   -1.8440 O   0  0  0  0  0  0  0  0  0  0  0  0
   23.5840  -10.6010   -1.7690 C   0  0  2  0  0  0  0  0  0  0  0  0
   23.9190  -10.7580   -0.2920 C   0  0  1  0  0  0  0  0  0  0  0  0
   25.3250  -11.3110   -0.1460 C   0  0  2  0  0  0  0  0  0  0  0  0
   26.3280  -10.3190   -0.7790 C   0  0  1  0  0  0  0  0  0  0  0  0
   25.8660   -9.7740   -2.1220 C   0  0  2  0  0  0  0  0  0  0  0  0
   24.6120  -10.1320   -2.5960 O   0  0  0  0  0  0  0  0  0  0  0  0
   23.1060  -11.9170   -2.4100 C   0  0  0  0  0  0  0  0  0  0  0  0
   20.8210  -12.7690   -2.9620 C   0  0  0  0  0  0  0  0  0  0  0  0
   21.4000  -14.0180   -2.8000 C   0  0  0  0  0  0  0  0  0  0  0  0
   20.6390  -15.1720   -2.8560 C   0  0  0  0  0  0  0  0  0  0  0  0
   19.2520  -15.0790   -3.0690 C   0  0  0  0  0  0  0  0  0  0  0  0
   18.4550  -16.2380   -3.1510 C   0  0  0  0  0  0  0  0  0  0  0  0
   17.0900  -16.1300   -3.3680 C   0  0  0  0  0  0  0  0  0  0  0  0
   16.4850  -14.8960   -3.5110 C   0  0  0  0  0  0  0  0  0  0  0  0
   17.2550  -13.7500   -3.4340 C   0  0  0  0  0  0  0  0  0  0  0  0
   18.6440  -13.8320   -3.2130 C   0  0  0  0  0  0  0  0  0  0  0  0
   19.4440  -12.6780   -3.1450 C   0  0  0  0  0  0  0  0  0  0  0  0
   25.4060  -12.5910   -0.7330 O   0  0  0  0  0  0  0  0  0  0  0  0
   26.3530  -12.8160   -0.8910 H   0  0  0  0  0  0  0  0  0  0  0  0
   23.8130   -9.5240    0.3980 O   0  0  0  0  0  0  0  0  0  0  0  0
   23.6500   -8.8010   -0.2520 H   0  0  0  0  0  0  0  0  0  0  0  0
   26.5880   -9.2420    0.1120 O   0  0  0  0  0  0  0  0  0  0  0  0
   26.9810   -9.5660    0.9420 H   0  0  0  0  0  0  0  0  0  0  0  0
   26.8630  -10.2050   -3.2280 C   0  0  0  0  0  0  0  0  0  0  0  0
   28.0060  -10.8540   -2.6890 O   0  0  0  0  0  0  0  0  0  0  0  0
   28.2020  -11.6630   -3.2130 H   0  0  0  0  0  0  0  0  0  0  0  0
  1 12  1  1  0  0  0
  1 11  1  0  0  0  0
  1  2  1  0  0  0  0
  2  4  1  0  0  0  0
  2  3  1  0  0  0  0
  4  5  1  0  0  0  0
  5 11  1  6  0  0  0
  6  5  1  6  0  0  0
  6  7  1  0  0  0  0
  6 24  1  0  0  0  0
  7 22  1  6  0  0  0
  8  7  1  0  0  0  0
  8 26  1  1  0  0  0
  9 28  1  6  0  0  0
  9  8  1  0  0  0  0
 10  9  1  0  0  0  0
 10  5  1  0  0  0  0
 12 13  2  0  0  0  0
 14 13  1  0  0  0  0
 15 14  2  0  0  0  0
 16 15  1  0  0  0  0
 17 16  2  0  0  0  0
 18 19  2  0  0  0  0
 18 17  1  0  0  0  0
 19 20  1  0  0  0  0
 20 21  2  0  0  0  0
 20 15  1  0  0  0  0
 21 12  1  0  0  0  0
 23 22  1  0  0  0  0
 25 24  1  0  0  0  0
 26 27  1  0  0  0  0
 28 29  1  0  0  0  0
 30 29  1  0  0  0  0
M  END
>  <minimizedAffinity>
-8.19452477

$$$$

 OpenBabel12271915413D

 30 33  0  0  1  0  0  0  0  0999 V2000
   25.3730  -11.5020    0.1400 C   0  0  1  0  0  0  0  0  0  0  0  0
   26.4830  -12.3770   -0.2210 N   0  0  0  0  0  0  0  0  0  0  0  0
   26.4800  -12.6570   -1.1790 H   0  0  0  0  0  0  0  0  0  0  0  0
   27.6090  -11.5090   -0.0520 O   0  0  0  0  0  0  0  0  0  0  0  0
   27.2680  -10.2290   -0.5650 C   0  0  2  0  0  0  0  0  0  0  0  0
   27.8380  -10.1560   -1.9750 C   0  0  1  0  0  0  0  0  0  0  0  0
   27.8830   -8.7080   -2.4300 C   0  0  2  0  0  0  0  0  0  0  0  0
   28.8030   -7.9070   -1.4800 C   0  0  1  0  0  0  0  0  0  0  0  0
   28.5770   -8.2310   -0.0110 C   0  0  2  0  0  0  0  0  0  0  0  0
   27.6710   -9.2260    0.3250 O   0  0  0  0  0  0  0  0  0  0  0  0
   25.7280  -10.2020   -0.5480 C   0  0  0  0  0  0  0  0  0  0  0  0
   24.0310  -12.0230   -0.3020 C   0  0  0  0  0  0  0  0  0  0  0  0
   22.9680  -11.1340   -0.3190 C   0  0  0  0  0  0  0  0  0  0  0  0
   21.6980  -11.5440   -0.6870 C   0  0  0  0  0  0  0  0  0  0  0  0
   21.4830  -12.8820   -1.0620 C   0  0  0  0  0  0  0  0  0  0  0  0
   20.1980  -13.3330   -1.4220 C   0  0  0  0  0  0  0  0  0  0  0  0
   20.0000  -14.6560   -1.7840 C   0  0  0  0  0  0  0  0  0  0  0  0
   21.0470  -15.5570   -1.7970 C   0  0  0  0  0  0  0  0  0  0  0  0
   22.3150  -15.1290   -1.4450 C   0  0  0  0  0  0  0  0  0  0  0  0
   22.5420  -13.7890   -1.0740 C   0  0  0  0  0  0  0  0  0  0  0  0
   23.8210  -13.3390   -0.7020 C   0  0  0  0  0  0  0  0  0  0  0  0
   26.5780   -8.1740   -2.4770 O   0  0  0  0  0  0  0  0  0  0  0  0
   26.6310   -7.1890   -2.4870 H   0  0  0  0  0  0  0  0  0  0  0  0
   29.1360  -10.7210   -2.0400 O   0  0  0  0  0  0  0  0  0  0  0  0
   29.4390  -10.9440   -1.1290 H   0  0  0  0  0  0  0  0  0  0  0  0
   30.1680   -8.1230   -1.8150 O   0  0  0  0  0  0  0  0  0  0  0  0
   30.3530   -7.8250   -2.7240 H   0  0  0  0  0  0  0  0  0  0  0  0
   28.0880   -6.9610    0.7310 C   0  0  0  0  0  0  0  0  0  0  0  0
   27.1690   -6.2100   -0.0500 O   0  0  0  0  0  0  0  0  0  0  0  0
   26.4030   -5.9460    0.5080 H   0  0  0  0  0  0  0  0  0  0  0  0
  1 12  1  6  0  0  0
  2  4  1  0  0  0  0
  2  1  1  0  0  0  0
  3  2  1  0  0  0  0
  5 11  1  6  0  0  0
  5  4  1  0  0  0  0
  5 10  1  0  0  0  0
  6  5  1  1  0  0  0
  7 22  1  1  0  0  0
  7  6  1  0  0  0  0
  7  8  1  0  0  0  0
  8 26  1  6  0  0  0
  8  9  1  0  0  0  0
  9 10  1  0  0  0  0
  9 28  1  1  0  0  0
 11  1  1  0  0  0  0
 13 12  1  0  0  0  0
 14 13  2  0  0  0  0
 15 14  1  0  0  0  0
 16 15  2  0  0  0  0
 17 16  1  0  0  0  0
 18 17  2  0  0  0  0
 18 19  1  0  0  0  0
 19 20  2  0  0  0  0
 20 15  1  0  0  0  0
 20 21  1  0  0  0  0
 21 12  2  0  0  0  0
 23 22  1  0  0  0  0
 24  6  1  0  0  0  0
 24 25  1  0  0  0  0
 27 26  1  0  0  0  0
 29 30  1  0  0  0  0
 29 28  1  0  0  0  0
M  END
>  <minimizedAffinity>
-7.91425419

$$$$

 OpenBabel12271915413D

 30 33  0  0  1  0  0  0  0  0999 V2000
   24.3170  -11.5450   -2.9020 C   0  0  1  0  0  0  0  0  0  0  0  0
   23.8080  -10.4810   -3.7620 N   0  0  0  0  0  0  0  0  0  0  0  0
   23.2090   -9.8360   -3.2910 H   0  0  0  0  0  0  0  0  0  0  0  0
   25.0050   -9.7660   -4.0840 O   0  0  0  0  0  0  0  0  0  0  0  0
   25.8010   -9.6730   -2.9120 C   0  0  2  0  0  0  0  0  0  0  0  0
   25.5340   -8.3010   -2.3080 C   0  0  1  0  0  0  0  0  0  0  0  0
   26.6290   -7.9620   -1.3110 C   0  0  2  0  0  0  0  0  0  0  0  0
   27.9890   -7.9260   -2.0460 C   0  0  1  0  0  0  0  0  0  0  0  0
   28.1800   -9.0840   -3.0140 C   0  0  2  0  0  0  0  0  0  0  0  0
   27.1360   -9.9780   -3.2050 O   0  0  0  0  0  0  0  0  0  0  0  0
   25.3030  -10.8200   -2.0130 C   0  0  0  0  0  0  0  0  0  0  0  0
   23.2430  -12.2360   -2.1040 C   0  0  0  0  0  0  0  0  0  0  0  0
   23.6000  -13.3640   -1.3830 C   0  0  0  0  0  0  0  0  0  0  0  0
   22.6640  -14.0690   -0.6470 C   0  0  0  0  0  0  0  0  0  0  0  0
   21.3290  -13.6290   -0.6190 C   0  0  0  0  0  0  0  0  0  0  0  0
   20.3500  -14.3370    0.1040 C   0  0  0  0  0  0  0  0  0  0  0  0
   19.0360  -13.8940    0.1180 C   0  0  0  0  0  0  0  0  0  0  0  0
   18.6590  -12.7590   -0.5740 C   0  0  0  0  0  0  0  0  0  0  0  0
   19.6100  -12.0540   -1.2900 C   0  0  0  0  0  0  0  0  0  0  0  0
   20.9500  -12.4830   -1.3190 C   0  0  0  0  0  0  0  0  0  0  0  0
   21.9270  -11.7850   -2.0510 C   0  0  0  0  0  0  0  0  0  0  0  0
   26.6240   -8.8950   -0.2520 O   0  0  0  0  0  0  0  0  0  0  0  0
   27.4880   -8.8500    0.2220 H   0  0  0  0  0  0  0  0  0  0  0  0
   25.4680   -7.2980   -3.3080 O   0  0  0  0  0  0  0  0  0  0  0  0
   25.7180   -7.6890   -4.1780 H   0  0  0  0  0  0  0  0  0  0  0  0
   28.1450   -6.6920   -2.7370 O   0  0  0  0  0  0  0  0  0  0  0  0
   28.1270   -5.9430   -2.1150 H   0  0  0  0  0  0  0  0  0  0  0  0
   29.3830   -9.9480   -2.5590 C   0  0  0  0  0  0  0  0  0  0  0  0
   29.0740  -10.7280   -1.4130 O   0  0  0  0  0  0  0  0  0  0  0  0
   29.3970  -11.6480   -1.5450 H   0  0  0  0  0  0  0  0  0  0  0  0
  1 12  1  1  0  0  0
  1 11  1  0  0  0  0
  2  3  1  0  0  0  0
  2  1  1  0  0  0  0
  4  2  1  0  0  0  0
  4  5  1  0  0  0  0
  5 11  1  1  0  0  0
  6  5  1  6  0  0  0
  6  7  1  0  0  0  0
  7 22  1  1  0  0  0
  8 26  1  6  0  0  0
  8  7  1  0  0  0  0
  9 28  1  1  0  0  0
  9  8  1  0  0  0  0
 10  9  1  0  0  0  0
 10  5  1  0  0  0  0
 12 21  2  0  0  0  0
 12 13  1  0  0  0  0
 13 14  2  0  0  0  0
 14 15  1  0  0  0  0
 15 16  2  0  0  0  0
 16 17  1  0  0  0  0
 18 17  2  0  0  0  0
 19 18  1  0  0  0  0
 20 19  2  0  0  0  0
 20 15  1  0  0  0  0
 21 20  1  0  0  0  0
 22 23  1  0  0  0  0
 24  6  1  0  0  0  0
 25 24  1  0  0  0  0
 26 27  1  0  0  0  0
 28 29  1  0  0  0  0
 30 29  1  0  0  0  0
M  END
>  <minimizedAffinity>
-7.83168316

$$$$
