
 OpenBabel12271915393D

 24 27  0  0  0  0  0  0  0  0999 V2000
   19.7830  -12.9860   -0.8240 N   0  0  0  0  0  0  0  0  0  0  0  0
   19.5030  -11.7020   -1.2160 C   0  0  0  0  0  0  0  0  0  0  0  0
   18.2140  -11.2140   -1.2190 N   0  0  0  0  0  0  0  0  0  0  0  0
   17.4940  -11.2080   -2.5090 C   0  0  0  0  0  0  0  0  0  0  0  0
   16.3370  -10.1850   -2.4790 C   0  0  0  0  0  0  0  0  0  0  0  0
   16.8610   -8.8170   -2.1930 N   0  0  0  0  0  0  0  0  0  0  0  0
   16.0730   -8.1900   -2.0010 H   0  0  0  0  0  0  0  0  0  0  0  0
   17.3470   -8.4370   -3.0250 H   0  0  0  0  0  0  0  0  0  0  0  0
   17.8240   -8.7590   -1.0380 C   0  0  0  0  0  0  0  0  0  0  0  0
   17.9080  -10.1100   -0.3040 C   0  0  0  0  0  0  0  0  0  0  0  0
   20.6020  -11.0560   -1.5080 N   0  0  0  0  0  0  0  0  0  0  0  0
   21.6360  -11.9300   -1.3480 C   0  0  0  0  0  0  0  0  0  0  0  0
   23.0100  -11.7730   -1.5430 C   0  0  0  0  0  0  0  0  0  0  0  0
   23.8630  -12.8500   -1.2980 C   0  0  0  0  0  0  0  0  0  0  0  0
   23.3520  -14.0750   -0.8750 C   0  0  0  0  0  0  0  0  0  0  0  0
   21.9830  -14.2380   -0.6950 C   0  0  0  0  0  0  0  0  0  0  0  0
   21.1380  -13.1590   -0.9240 C   0  0  0  0  0  0  0  0  0  0  0  0
   18.8100  -14.0060   -0.5100 C   0  0  0  0  0  0  0  0  0  0  0  0
   18.3370  -14.7720   -1.7070 C   0  0  0  0  0  0  0  0  0  0  0  0
   19.1810  -15.5910   -2.4470 C   0  0  0  0  0  0  0  0  0  0  0  0
   18.6970  -16.3340   -3.5140 C   0  0  0  0  0  0  0  0  0  0  0  0
   17.3630  -16.2670   -3.8750 C   0  0  0  0  0  0  0  0  0  0  0  0
   16.5190  -15.4510   -3.1500 C   0  0  0  0  0  0  0  0  0  0  0  0
   16.9970  -14.7090   -2.0830 C   0  0  0  0  0  0  0  0  0  0  0  0
  1 18  1  0  0  0  0
  2  1  1  0  0  0  0
  3  2  1  0  0  0  0
  3 10  1  0  0  0  0
  4  5  1  0  0  0  0
  4  3  1  0  0  0  0
  5  6  1  0  0  0  0
  6  7  1  0  0  0  0
  6  9  1  0  0  0  0
  8  6  1  0  0  0  0
  9 10  1  0  0  0  0
 11 12  2  0  0  0  0
 11  2  2  0  0  0  0
 12 17  1  0  0  0  0
 13 12  1  0  0  0  0
 13 14  1  0  0  0  0
 14 15  2  0  0  0  0
 15 16  1  0  0  0  0
 17  1  1  0  0  0  0
 17 16  2  0  0  0  0
 19 18  1  0  0  0  0
 20 19  2  0  0  0  0
 21 20  1  0  0  0  0
 22 21  2  0  0  0  0
 22 23  1  0  0  0  0
 23 24  2  0  0  0  0
 24 19  1  0  0  0  0
M  END
>  <minimizedAffinity>
-8.02342129

$$$$

 OpenBabel12271915393D

 24 27  0  0  0  0  0  0  0  0999 V2000
   19.8690  -12.7610   -0.7620 N   0  0  0  0  0  0  0  0  0  0  0  0
   19.5420  -11.5110   -1.2230 C   0  0  0  0  0  0  0  0  0  0  0  0
   18.2400  -11.0580   -1.2130 N   0  0  0  0  0  0  0  0  0  0  0  0
   17.4790  -11.1510   -2.4760 C   0  0  0  0  0  0  0  0  0  0  0  0
   16.2960  -10.1580   -2.4710 C   0  0  0  0  0  0  0  0  0  0  0  0
   16.7920   -8.7620   -2.2880 N   0  0  0  0  0  0  0  0  0  0  0  0
   15.9930   -8.1440   -2.1090 H   0  0  0  0  0  0  0  0  0  0  0  0
   17.2400   -8.4230   -3.1580 H   0  0  0  0  0  0  0  0  0  0  0  0
   17.7890   -8.6070   -1.1720 C   0  0  0  0  0  0  0  0  0  0  0  0
   17.9340   -9.9060   -0.3590 C   0  0  0  0  0  0  0  0  0  0  0  0
   20.6130  -10.8580   -1.5910 N   0  0  0  0  0  0  0  0  0  0  0  0
   21.6750  -11.6930   -1.4120 C   0  0  0  0  0  0  0  0  0  0  0  0
   23.0370  -11.5130   -1.6620 C   0  0  0  0  0  0  0  0  0  0  0  0
   23.9260  -12.5500   -1.3800 C   0  0  0  0  0  0  0  0  0  0  0  0
   23.4630  -13.7590   -0.8640 C   0  0  0  0  0  0  0  0  0  0  0  0
   22.1070  -13.9450   -0.6290 C   0  0  0  0  0  0  0  0  0  0  0  0
   21.2250  -12.9050   -0.8960 C   0  0  0  0  0  0  0  0  0  0  0  0
   18.9350  -13.7840   -0.3530 C   0  0  0  0  0  0  0  0  0  0  0  0
   18.4010  -14.5980   -1.4910 C   0  0  0  0  0  0  0  0  0  0  0  0
   17.0760  -14.5230   -1.9010 C   0  0  0  0  0  0  0  0  0  0  0  0
   16.6280  -15.2460   -2.9970 C   0  0  0  0  0  0  0  0  0  0  0  0
   17.4890  -16.0690   -3.7020 C   0  0  0  0  0  0  0  0  0  0  0  0
   18.8060  -16.1540   -3.2970 C   0  0  0  0  0  0  0  0  0  0  0  0
   19.2580  -15.4330   -2.2040 C   0  0  0  0  0  0  0  0  0  0  0  0
  1 18  1  0  0  0  0
  2  3  1  0  0  0  0
  2  1  1  0  0  0  0
  3 10  1  0  0  0  0
  4  5  1  0  0  0  0
  4  3  1  0  0  0  0
  5  6  1  0  0  0  0
  6  7  1  0  0  0  0
  6  9  1  0  0  0  0
  8  6  1  0  0  0  0
  9 10  1  0  0  0  0
 11 12  2  0  0  0  0
 11  2  2  0  0  0  0
 12 17  1  0  0  0  0
 13 12  1  0  0  0  0
 13 14  1  0  0  0  0
 14 15  2  0  0  0  0
 15 16  1  0  0  0  0
 17  1  1  0  0  0  0
 17 16  2  0  0  0  0
 19 18  1  0  0  0  0
 20 19  1  0  0  0  0
 21 20  2  0  0  0  0
 22 23  2  0  0  0  0
 22 21  1  0  0  0  0
 23 24  1  0  0  0  0
 24 19  2  0  0  0  0
M  END
>  <minimizedAffinity>
-7.88866758

$$$$

 OpenBabel12271915393D

 24 27  0  0  0  0  0  0  0  0999 V2000
   20.1930  -12.1930   -0.9150 N   0  0  0  0  0  0  0  0  0  0  0  0
   21.4250  -11.6760   -1.2250 C   0  0  0  0  0  0  0  0  0  0  0  0
   22.5600  -12.4590   -1.2060 N   0  0  0  0  0  0  0  0  0  0  0  0
   23.4130  -12.3900   -0.0020 C   0  0  0  0  0  0  0  0  0  0  0  0
   24.8490  -12.8600   -0.3270 C   0  0  0  0  0  0  0  0  0  0  0  0
   25.4390  -12.0160   -1.4080 N   0  0  0  0  0  0  0  0  0  0  0  0
   26.3100  -12.4490   -1.7310 H   0  0  0  0  0  0  0  0  0  0  0  0
   25.6910  -11.0820   -1.0370 H   0  0  0  0  0  0  0  0  0  0  0  0
   24.5290  -11.8070   -2.5880 C   0  0  0  0  0  0  0  0  0  0  0  0
   23.2570  -12.6660   -2.4800 C   0  0  0  0  0  0  0  0  0  0  0  0
   21.3280  -10.4190   -1.5690 N   0  0  0  0  0  0  0  0  0  0  0  0
   20.0150  -10.0700   -1.4530 C   0  0  0  0  0  0  0  0  0  0  0  0
   19.3640   -8.8550   -1.6740 C   0  0  0  0  0  0  0  0  0  0  0  0
   17.9850   -8.7730   -1.4790 C   0  0  0  0  0  0  0  0  0  0  0  0
   17.2620   -9.8870   -1.0570 C   0  0  0  0  0  0  0  0  0  0  0  0
   17.9110  -11.0940   -0.8220 C   0  0  0  0  0  0  0  0  0  0  0  0
   19.2810  -11.1770   -1.0320 C   0  0  0  0  0  0  0  0  0  0  0  0
   19.9340  -13.5230   -0.4150 C   0  0  0  0  0  0  0  0  0  0  0  0
   19.3170  -14.4350   -1.4300 C   0  0  0  0  0  0  0  0  0  0  0  0
   17.9480  -14.4720   -1.6610 C   0  0  0  0  0  0  0  0  0  0  0  0
   17.4150  -15.2860   -2.6510 C   0  0  0  0  0  0  0  0  0  0  0  0
   18.2350  -16.0900   -3.4230 C   0  0  0  0  0  0  0  0  0  0  0  0
   19.5960  -16.0640   -3.1960 C   0  0  0  0  0  0  0  0  0  0  0  0
   20.1330  -15.2520   -2.2100 C   0  0  0  0  0  0  0  0  0  0  0  0
  1 18  1  0  0  0  0
  2  3  1  0  0  0  0
  2  1  1  0  0  0  0
  3  4  1  0  0  0  0
  5  4  1  0  0  0  0
  6  8  1  0  0  0  0
  6  5  1  0  0  0  0
  7  6  1  0  0  0  0
  9 10  1  0  0  0  0
  9  6  1  0  0  0  0
 10  3  1  0  0  0  0
 11 12  2  0  0  0  0
 11  2  2  0  0  0  0
 12 17  1  0  0  0  0
 13 14  1  0  0  0  0
 13 12  1  0  0  0  0
 14 15  2  0  0  0  0
 15 16  1  0  0  0  0
 17  1  1  0  0  0  0
 17 16  2  0  0  0  0
 19 18  1  0  0  0  0
 20 19  1  0  0  0  0
 21 20  2  0  0  0  0
 22 23  2  0  0  0  0
 22 21  1  0  0  0  0
 23 24  1  0  0  0  0
 24 19  2  0  0  0  0
M  END
>  <minimizedAffinity>
-7.57310009

$$$$

 OpenBabel12271915393D

 24 27  0  0  0  0  0  0  0  0999 V2000
   18.5690  -13.4000   -3.0610 N   0  0  0  0  0  0  0  0  0  0  0  0
   17.5470  -12.5860   -2.6430 C   0  0  0  0  0  0  0  0  0  0  0  0
   17.7810  -11.2940   -2.2250 N   0  0  0  0  0  0  0  0  0  0  0  0
   17.8670  -11.0560   -0.7690 C   0  0  0  0  0  0  0  0  0  0  0  0
   17.5910   -9.5710   -0.4450 C   0  0  0  0  0  0  0  0  0  0  0  0
   16.2390   -9.1750   -0.9370 N   0  0  0  0  0  0  0  0  0  0  0  0
   16.1450   -8.1560   -0.8750 H   0  0  0  0  0  0  0  0  0  0  0  0
   15.5030   -9.5780   -0.3290 H   0  0  0  0  0  0  0  0  0  0  0  0
   15.9500   -9.6080   -2.3490 C   0  0  0  0  0  0  0  0  0  0  0  0
   17.1950  -10.2110   -3.0220 C   0  0  0  0  0  0  0  0  0  0  0  0
   16.3940  -13.1920   -2.7580 N   0  0  0  0  0  0  0  0  0  0  0  0
   16.6450  -14.4480   -3.2250 C   0  0  0  0  0  0  0  0  0  0  0  0
   15.7860  -15.5120   -3.5070 C   0  0  0  0  0  0  0  0  0  0  0  0
   16.3160  -16.7100   -3.9860 C   0  0  0  0  0  0  0  0  0  0  0  0
   17.6900  -16.8530   -4.1720 C   0  0  0  0  0  0  0  0  0  0  0  0
   18.5480  -15.8000   -3.8770 C   0  0  0  0  0  0  0  0  0  0  0  0
   18.0160  -14.6020   -3.4160 C   0  0  0  0  0  0  0  0  0  0  0  0
   19.9780  -13.0910   -2.9960 C   0  0  0  0  0  0  0  0  0  0  0  0
   20.7070  -13.8410   -1.9240 C   0  0  0  0  0  0  0  0  0  0  0  0
   20.3550  -13.7490   -0.5830 C   0  0  0  0  0  0  0  0  0  0  0  0
   21.0120  -14.5030    0.3790 C   0  0  0  0  0  0  0  0  0  0  0  0
   22.0430  -15.3560    0.0260 C   0  0  0  0  0  0  0  0  0  0  0  0
   22.4040  -15.4480   -1.3030 C   0  0  0  0  0  0  0  0  0  0  0  0
   21.7490  -14.6980   -2.2670 C   0  0  0  0  0  0  0  0  0  0  0  0
  1 18  1  0  0  0  0
  1  2  1  0  0  0  0
  2  3  1  0  0  0  0
  3  4  1  0  0  0  0
  4  5  1  0  0  0  0
  6  7  1  0  0  0  0
  6  5  1  0  0  0  0
  6  8  1  0  0  0  0
  9  6  1  0  0  0  0
 10  9  1  0  0  0  0
 10  3  1  0  0  0  0
 11  2  2  0  0  0  0
 12 11  2  0  0  0  0
 13 12  1  0  0  0  0
 14 13  1  0  0  0  0
 15 14  2  0  0  0  0
 15 16  1  0  0  0  0
 16 17  2  0  0  0  0
 17 12  1  0  0  0  0
 17  1  1  0  0  0  0
 18 19  1  0  0  0  0
 19 20  1  0  0  0  0
 20 21  2  0  0  0  0
 22 21  1  0  0  0  0
 23 22  2  0  0  0  0
 24 19  2  0  0  0  0
 24 23  1  0  0  0  0
M  END
>  <minimizedAffinity>
-7.49782228

$$$$

 OpenBabel12271915393D

 24 27  0  0  0  0  0  0  0  0999 V2000
   20.9740  -12.4070   -1.8080 N   0  0  0  0  0  0  0  0  0  0  0  0
   20.9880  -11.5260   -2.8590 C   0  0  0  0  0  0  0  0  0  0  0  0
   21.7200  -10.3600   -2.8120 N   0  0  0  0  0  0  0  0  0  0  0  0
   20.9990   -9.1190   -2.4620 C   0  0  0  0  0  0  0  0  0  0  0  0
   21.7770   -7.8800   -2.9610 C   0  0  0  0  0  0  0  0  0  0  0  0
   21.9660   -7.9490   -4.4400 N   0  0  0  0  0  0  0  0  0  0  0  0
   22.6290   -7.2210   -4.7260 H   0  0  0  0  0  0  0  0  0  0  0  0
   21.0730   -7.7440   -4.9260 H   0  0  0  0  0  0  0  0  0  0  0  0
   22.4590   -9.2820   -4.9340 C   0  0  0  0  0  0  0  0  0  0  0  0
   22.8230  -10.2170   -3.7680 C   0  0  0  0  0  0  0  0  0  0  0  0
   20.2810  -11.9860   -3.8590 N   0  0  0  0  0  0  0  0  0  0  0  0
   19.7500  -13.1770   -3.4620 C   0  0  0  0  0  0  0  0  0  0  0  0
   18.9080  -14.0740   -4.1230 C   0  0  0  0  0  0  0  0  0  0  0  0
   18.5100  -15.2430   -3.4740 C   0  0  0  0  0  0  0  0  0  0  0  0
   18.9370  -15.5120   -2.1750 C   0  0  0  0  0  0  0  0  0  0  0  0
   19.7620  -14.6130   -1.5100 C   0  0  0  0  0  0  0  0  0  0  0  0
   20.1700  -13.4580   -2.1640 C   0  0  0  0  0  0  0  0  0  0  0  0
   21.5760  -12.1890   -0.5130 C   0  0  0  0  0  0  0  0  0  0  0  0
   23.0380  -12.5120   -0.4700 C   0  0  0  0  0  0  0  0  0  0  0  0
   23.9920  -11.5890   -0.0610 C   0  0  0  0  0  0  0  0  0  0  0  0
   25.3320  -11.9390    0.0250 C   0  0  0  0  0  0  0  0  0  0  0  0
   25.7520  -13.2150   -0.3070 C   0  0  0  0  0  0  0  0  0  0  0  0
   24.8120  -14.1370   -0.7200 C   0  0  0  0  0  0  0  0  0  0  0  0
   23.4730  -13.7920   -0.8060 C   0  0  0  0  0  0  0  0  0  0  0  0
  1 18  1  0  0  0  0
  2  3  1  0  0  0  0
  2  1  1  0  0  0  0
  3  4  1  0  0  0  0
  5  4  1  0  0  0  0
  6  5  1  0  0  0  0
  7  6  1  0  0  0  0
  8  6  1  0  0  0  0
  9  6  1  0  0  0  0
  9 10  1  0  0  0  0
 10  3  1  0  0  0  0
 11 12  2  0  0  0  0
 11  2  2  0  0  0  0
 12 17  1  0  0  0  0
 13 14  1  0  0  0  0
 13 12  1  0  0  0  0
 14 15  2  0  0  0  0
 15 16  1  0  0  0  0
 17  1  1  0  0  0  0
 17 16  2  0  0  0  0
 18 19  1  0  0  0  0
 19 20  2  0  0  0  0
 20 21  1  0  0  0  0
 22 21  2  0  0  0  0
 23 22  1  0  0  0  0
 24 23  2  0  0  0  0
 24 19  1  0  0  0  0
M  END
>  <minimizedAffinity>
-7.46809578

$$$$

 OpenBabel12271915393D

 24 27  0  0  0  0  0  0  0  0999 V2000
   21.1130  -11.8010   -2.3570 N   0  0  0  0  0  0  0  0  0  0  0  0
   20.4310  -10.8330   -1.6650 C   0  0  0  0  0  0  0  0  0  0  0  0
   19.1520  -10.4620   -2.0180 N   0  0  0  0  0  0  0  0  0  0  0  0
   19.0000   -9.2430   -2.8390 C   0  0  0  0  0  0  0  0  0  0  0  0
   17.5730   -8.6690   -2.6990 C   0  0  0  0  0  0  0  0  0  0  0  0
   17.2800   -8.3490   -1.2710 N   0  0  0  0  0  0  0  0  0  0  0  0
   16.2810   -8.1410   -1.1730 H   0  0  0  0  0  0  0  0  0  0  0  0
   17.7910   -7.4940   -0.9820 H   0  0  0  0  0  0  0  0  0  0  0  0
   17.6480   -9.4460   -0.3090 C   0  0  0  0  0  0  0  0  0  0  0  0
   18.0820  -10.7240   -1.0490 C   0  0  0  0  0  0  0  0  0  0  0  0
   21.1390  -10.4010   -0.6530 N   0  0  0  0  0  0  0  0  0  0  0  0
   22.3320  -11.0590   -0.6860 C   0  0  0  0  0  0  0  0  0  0  0  0
   23.4540  -10.9680    0.1400 C   0  0  0  0  0  0  0  0  0  0  0  0
   24.5620  -11.7750   -0.1220 C   0  0  0  0  0  0  0  0  0  0  0  0
   24.5570  -12.6560   -1.2010 C   0  0  0  0  0  0  0  0  0  0  0  0
   23.4470  -12.7370   -2.0330 C   0  0  0  0  0  0  0  0  0  0  0  0
   22.3390  -11.9440   -1.7610 C   0  0  0  0  0  0  0  0  0  0  0  0
   20.6730  -12.4400   -3.5750 C   0  0  0  0  0  0  0  0  0  0  0  0
   19.7760  -13.6170   -3.3450 C   0  0  0  0  0  0  0  0  0  0  0  0
   18.4240  -13.5950   -3.6630 C   0  0  0  0  0  0  0  0  0  0  0  0
   17.6340  -14.7230   -3.4930 C   0  0  0  0  0  0  0  0  0  0  0  0
   18.1730  -15.8940   -2.9900 C   0  0  0  0  0  0  0  0  0  0  0  0
   19.5140  -15.9230   -2.6650 C   0  0  0  0  0  0  0  0  0  0  0  0
   20.3070  -14.8000   -2.8340 C   0  0  0  0  0  0  0  0  0  0  0  0
  1 17  1  0  0  0  0
  1  2  1  0  0  0  0
  2 11  2  0  0  0  0
  3  2  1  0  0  0  0
  3 10  1  0  0  0  0
  4  5  1  0  0  0  0
  4  3  1  0  0  0  0
  5  6  1  0  0  0  0
  6  7  1  0  0  0  0
  6  8  1  0  0  0  0
  6  9  1  0  0  0  0
 10  9  1  0  0  0  0
 12 11  2  0  0  0  0
 12 13  1  0  0  0  0
 14 13  1  0  0  0  0
 15 14  2  0  0  0  0
 16 17  2  0  0  0  0
 16 15  1  0  0  0  0
 17 12  1  0  0  0  0
 18 19  1  0  0  0  0
 18  1  1  0  0  0  0
 19 24  2  0  0  0  0
 20 21  2  0  0  0  0
 20 19  1  0  0  0  0
 21 22  1  0  0  0  0
 22 23  2  0  0  0  0
 24 23  1  0  0  0  0
M  END
>  <minimizedAffinity>
-7.40567732

$$$$

 OpenBabel12271915393D

 24 27  0  0  0  0  0  0  0  0999 V2000
   21.2410  -11.6580   -2.0330 N   0  0  0  0  0  0  0  0  0  0  0  0
   20.4100  -12.3490   -2.8760 C   0  0  0  0  0  0  0  0  0  0  0  0
   19.6800  -13.4340   -2.4400 N   0  0  0  0  0  0  0  0  0  0  0  0
   20.2250  -14.7770   -2.7230 C   0  0  0  0  0  0  0  0  0  0  0  0
   19.1030  -15.8380   -2.6760 C   0  0  0  0  0  0  0  0  0  0  0  0
   18.0370  -15.5110   -3.6680 N   0  0  0  0  0  0  0  0  0  0  0  0
   17.2270  -16.1170   -3.5010 H   0  0  0  0  0  0  0  0  0  0  0  0
   18.3660  -15.7160   -4.6290 H   0  0  0  0  0  0  0  0  0  0  0  0
   17.5900  -14.0750   -3.6360 C   0  0  0  0  0  0  0  0  0  0  0  0
   18.2180  -13.3130   -2.4560 C   0  0  0  0  0  0  0  0  0  0  0  0
   20.3920  -11.7990   -4.0630 N   0  0  0  0  0  0  0  0  0  0  0  0
   21.2550  -10.7450   -4.0310 C   0  0  0  0  0  0  0  0  0  0  0  0
   21.6310   -9.8350   -5.0210 C   0  0  0  0  0  0  0  0  0  0  0  0
   22.5490   -8.8310   -4.7130 C   0  0  0  0  0  0  0  0  0  0  0  0
   23.0970   -8.7400   -3.4350 C   0  0  0  0  0  0  0  0  0  0  0  0
   22.7360   -9.6540   -2.4530 C   0  0  0  0  0  0  0  0  0  0  0  0
   21.8090  -10.6430   -2.7570 C   0  0  0  0  0  0  0  0  0  0  0  0
   21.5680  -12.0280   -0.6750 C   0  0  0  0  0  0  0  0  0  0  0  0
   22.9440  -12.5980   -0.5230 C   0  0  0  0  0  0  0  0  0  0  0  0
   23.2800  -13.8630   -0.9870 C   0  0  0  0  0  0  0  0  0  0  0  0
   24.5800  -14.3380   -0.8850 C   0  0  0  0  0  0  0  0  0  0  0  0
   25.5710  -13.5650   -0.3070 C   0  0  0  0  0  0  0  0  0  0  0  0
   25.2450  -12.3080    0.1620 C   0  0  0  0  0  0  0  0  0  0  0  0
   23.9490  -11.8300    0.0610 C   0  0  0  0  0  0  0  0  0  0  0  0
  1 18  1  0  0  0  0
  2  3  1  0  0  0  0
  2  1  1  0  0  0  0
  4  5  1  0  0  0  0
  4  3  1  0  0  0  0
  6  9  1  0  0  0  0
  6  7  1  0  0  0  0
  6  5  1  0  0  0  0
  8  6  1  0  0  0  0
  9 10  1  0  0  0  0
 10  3  1  0  0  0  0
 11 12  2  0  0  0  0
 11  2  2  0  0  0  0
 12 17  1  0  0  0  0
 13 14  1  0  0  0  0
 13 12  1  0  0  0  0
 14 15  2  0  0  0  0
 15 16  1  0  0  0  0
 17 16  2  0  0  0  0
 17  1  1  0  0  0  0
 18 19  1  0  0  0  0
 19 24  2  0  0  0  0
 20 21  2  0  0  0  0
 20 19  1  0  0  0  0
 21 22  1  0  0  0  0
 22 23  2  0  0  0  0
 24 23  1  0  0  0  0
M  END
>  <minimizedAffinity>
-7.18948078

$$$$

 OpenBabel12271915393D

 24 27  0  0  0  0  0  0  0  0999 V2000
   19.0420  -13.6080   -1.3590 N   0  0  0  0  0  0  0  0  0  0  0  0
   20.3560  -13.8070   -1.6940 C   0  0  0  0  0  0  0  0  0  0  0  0
   21.3680  -13.0780   -1.1050 N   0  0  0  0  0  0  0  0  0  0  0  0
   21.8950  -11.9190   -1.8540 C   0  0  0  0  0  0  0  0  0  0  0  0
   23.3130  -11.5540   -1.3600 C   0  0  0  0  0  0  0  0  0  0  0  0
   24.2350  -12.7170   -1.5240 N   0  0  0  0  0  0  0  0  0  0  0  0
   25.1130  -12.5190   -1.0330 H   0  0  0  0  0  0  0  0  0  0  0  0
   24.4760  -12.8460   -2.5230 H   0  0  0  0  0  0  0  0  0  0  0  0
   23.6740  -14.0190   -1.0190 C   0  0  0  0  0  0  0  0  0  0  0  0
   22.3370  -13.8130   -0.2850 C   0  0  0  0  0  0  0  0  0  0  0  0
   20.4720  -14.7760   -2.5640 N   0  0  0  0  0  0  0  0  0  0  0  0
   19.2130  -15.2120   -2.8500 C   0  0  0  0  0  0  0  0  0  0  0  0
   18.7600  -16.2060   -3.7210 C   0  0  0  0  0  0  0  0  0  0  0  0
   17.3910  -16.4550   -3.8210 C   0  0  0  0  0  0  0  0  0  0  0  0
   16.4800  -15.7150   -3.0690 C   0  0  0  0  0  0  0  0  0  0  0  0
   16.9280  -14.7160   -2.2130 C   0  0  0  0  0  0  0  0  0  0  0  0
   18.2920  -14.4810   -2.1030 C   0  0  0  0  0  0  0  0  0  0  0  0
   18.5360  -12.5690   -0.4930 C   0  0  0  0  0  0  0  0  0  0  0  0
   18.1980  -11.3000   -1.2130 C   0  0  0  0  0  0  0  0  0  0  0  0
   18.3620  -11.1580   -2.5850 C   0  0  0  0  0  0  0  0  0  0  0  0
   17.9830   -9.9890   -3.2300 C   0  0  0  0  0  0  0  0  0  0  0  0
   17.4430   -8.9320   -2.5200 C   0  0  0  0  0  0  0  0  0  0  0  0
   17.2830   -9.0620   -1.1550 C   0  0  0  0  0  0  0  0  0  0  0  0
   17.6590  -10.2270   -0.5070 C   0  0  0  0  0  0  0  0  0  0  0  0
  1 18  1  0  0  0  0
  2  1  1  0  0  0  0
  2  3  1  0  0  0  0
  3 10  1  0  0  0  0
  4  5  1  0  0  0  0
  4  3  1  0  0  0  0
  6  5  1  0  0  0  0
  6  7  1  0  0  0  0
  6  9  1  0  0  0  0
  8  6  1  0  0  0  0
  9 10  1  0  0  0  0
 11  2  2  0  0  0  0
 12 11  2  0  0  0  0
 12 17  1  0  0  0  0
 13 12  1  0  0  0  0
 14 13  1  0  0  0  0
 14 15  2  0  0  0  0
 15 16  1  0  0  0  0
 16 17  2  0  0  0  0
 17  1  1  0  0  0  0
 19 24  2  0  0  0  0
 19 18  1  0  0  0  0
 20 19  1  0  0  0  0
 21 20  2  0  0  0  0
 21 22  1  0  0  0  0
 22 23  2  0  0  0  0
 23 24  1  0  0  0  0
M  END
>  <minimizedAffinity>
-7.13742208

$$$$

 OpenBabel12271915393D

 24 27  0  0  0  0  0  0  0  0999 V2000
   20.8850  -12.3820   -1.8450 N   0  0  0  0  0  0  0  0  0  0  0  0
   22.1440  -12.9060   -1.6990 C   0  0  0  0  0  0  0  0  0  0  0  0
   23.2160  -12.1150   -1.3440 N   0  0  0  0  0  0  0  0  0  0  0  0
   24.1030  -11.6470   -2.4280 C   0  0  0  0  0  0  0  0  0  0  0  0
   25.4900  -11.2620   -1.8650 C   0  0  0  0  0  0  0  0  0  0  0  0
   26.1140  -12.4310   -1.1780 N   0  0  0  0  0  0  0  0  0  0  0  0
   26.9410  -12.1130   -0.6630 H   0  0  0  0  0  0  0  0  0  0  0  0
   26.4460  -13.1220   -1.8750 H   0  0  0  0  0  0  0  0  0  0  0  0
   25.1920  -13.1470   -0.2290 C   0  0  0  0  0  0  0  0  0  0  0  0
   23.8610  -12.3940   -0.0560 C   0  0  0  0  0  0  0  0  0  0  0  0
   22.1330  -14.2000   -1.8870 N   0  0  0  0  0  0  0  0  0  0  0  0
   20.8540  -14.5500   -2.2040 C   0  0  0  0  0  0  0  0  0  0  0  0
   20.2920  -15.7890   -2.5190 C   0  0  0  0  0  0  0  0  0  0  0  0
   18.9290  -15.8670   -2.8050 C   0  0  0  0  0  0  0  0  0  0  0  0
   18.1350  -14.7220   -2.7890 C   0  0  0  0  0  0  0  0  0  0  0  0
   18.6960  -13.4860   -2.4910 C   0  0  0  0  0  0  0  0  0  0  0  0
   20.0500  -13.4120   -2.1900 C   0  0  0  0  0  0  0  0  0  0  0  0
   20.5390  -10.9810   -1.7900 C   0  0  0  0  0  0  0  0  0  0  0  0
   20.2540  -10.3810   -3.1330 C   0  0  0  0  0  0  0  0  0  0  0  0
   19.0660   -9.7200   -3.4150 C   0  0  0  0  0  0  0  0  0  0  0  0
   18.8590   -9.1230   -4.6510 C   0  0  0  0  0  0  0  0  0  0  0  0
   19.8280   -9.1830   -5.6360 C   0  0  0  0  0  0  0  0  0  0  0  0
   21.0100   -9.8440   -5.3670 C   0  0  0  0  0  0  0  0  0  0  0  0
   21.2210  -10.4400   -4.1340 C   0  0  0  0  0  0  0  0  0  0  0  0
  1 18  1  0  0  0  0
  1  2  1  0  0  0  0
  2  3  1  0  0  0  0
  3 10  1  0  0  0  0
  4  5  1  0  0  0  0
  4  3  1  0  0  0  0
  5  6  1  0  0  0  0
  6  7  1  0  0  0  0
  6  9  1  0  0  0  0
  8  6  1  0  0  0  0
  9 10  1  0  0  0  0
 11  2  2  0  0  0  0
 12 17  1  0  0  0  0
 12 11  2  0  0  0  0
 13 12  1  0  0  0  0
 14 15  2  0  0  0  0
 14 13  1  0  0  0  0
 15 16  1  0  0  0  0
 16 17  2  0  0  0  0
 17  1  1  0  0  0  0
 19 18  1  0  0  0  0
 20 19  1  0  0  0  0
 21 20  2  0  0  0  0
 22 23  2  0  0  0  0
 22 21  1  0  0  0  0
 23 24  1  0  0  0  0
 24 19  2  0  0  0  0
M  END
>  <minimizedAffinity>
-7.10948324

$$$$
