
 OpenBabel12271915403D

 25 29  0  0  1  0  0  0  0  0999 V2000
   18.7850  -11.4710   -1.2870 C   0  0  1  0  0  0  0  0  0  0  0  0
   19.6840  -12.8470   -1.2470 C   0  0  1  0  0  0  0  0  0  0  0  0
   19.1160  -14.0420   -2.0750 C   0  0  0  0  0  0  0  0  0  0  0  0
   17.8730  -13.9640   -2.6930 C   0  0  0  0  0  0  0  0  0  0  0  0
   17.3520  -15.0730   -3.3660 C   0  0  0  0  0  0  0  0  0  0  0  0
   16.1580  -15.1170   -4.0010 O   0  0  0  0  0  0  0  0  0  0  0  0
   16.1010  -16.5940   -4.1810 C   0  0  0  0  0  0  0  0  0  0  0  0
   17.4120  -17.2330   -4.1660 O   0  0  0  0  0  0  0  0  0  0  0  0
   18.1070  -16.2320   -3.4340 C   0  0  0  0  0  0  0  0  0  0  0  0
   19.3140  -16.3730   -2.8940 C   0  0  0  0  0  0  0  0  0  0  0  0
   19.8360  -15.3000   -2.1760 C   0  0  0  0  0  0  0  0  0  0  0  0
   21.2090  -15.4100   -1.6290 C   0  0  0  0  0  0  0  0  0  0  0  0
   22.1280  -14.5500   -2.4880 C   0  0  0  0  0  0  0  0  0  0  0  0
   22.2160  -13.0980   -1.9900 N   0  0  2  0  0  0  0  0  0  0  0  0
   22.7060  -12.6620   -2.7340 H   0  0  0  0  0  0  0  0  0  0  0  0
   23.1020  -12.9620   -0.8040 C   0  0  0  0  0  0  0  0  0  0  0  0
   23.0160  -11.5190   -0.5660 C   0  0  0  0  0  0  0  0  0  0  0  0
   21.5330  -11.3020   -0.6470 C   0  0  0  0  0  0  0  0  0  0  0  0
   20.9980  -12.2490   -1.7350 C   0  0  2  0  0  0  0  0  0  0  0  0
   20.4840  -11.4250   -2.9170 C   0  0  0  0  0  0  0  0  0  0  0  0
   19.2520  -10.9730   -2.6360 C   0  0  2  0  0  0  0  0  0  0  0  0
   17.4290  -11.6240   -1.0160 O   0  0  0  0  0  0  0  0  0  0  0  0
   17.1850  -10.9420   -0.3910 H   0  0  0  0  0  0  0  0  0  0  0  0
   18.5910  -10.1590   -3.5070 O   0  0  0  0  0  0  0  0  0  0  0  0
   19.3340   -9.3350   -4.4430 C   0  0  0  0  0  0  0  0  0  0  0  0
  1  2  1  0  0  0  0
  1 22  1  6  0  0  0
  2 19  1  6  0  0  0
  3  2  1  0  0  0  0
  4  3  2  0  0  0  0
  5  4  1  0  0  0  0
  6  5  1  0  0  0  0
  7  8  1  0  0  0  0
  7  6  1  0  0  0  0
  8  9  1  0  0  0  0
  9  5  2  0  0  0  0
  9 10  1  0  0  0  0
 10 11  2  0  0  0  0
 11  3  1  0  0  0  0
 11 12  1  0  0  0  0
 13 14  1  0  0  0  0
 13 12  1  0  0  0  0
 14 19  1  1  0  0  0
 14 16  1  0  0  0  0
 15 14  1  0  0  0  0
 16 17  1  0  0  0  0
 18 17  1  0  0  0  0
 19 20  1  6  0  0  0
 19 18  1  0  0  0  0
 20 21  1  0  0  0  0
 21 24  1  1  0  0  0
 21  1  1  0  0  0  0
 22 23  1  0  0  0  0
 25 24  1  0  0  0  0
M  END
>  <minimizedAffinity>
-8.42594814

$$$$

 OpenBabel12271915403D

 25 29  0  0  1  0  0  0  0  0999 V2000
   20.0940  -10.8730   -1.3680 C   0  0  1  0  0  0  0  0  0  0  0  0
   20.7840  -12.3280   -1.0380 C   0  0  1  0  0  0  0  0  0  0  0  0
   20.1670  -13.5480   -1.7910 C   0  0  0  0  0  0  0  0  0  0  0  0
   19.0340  -13.4070   -2.5850 C   0  0  0  0  0  0  0  0  0  0  0  0
   18.4550  -14.5260   -3.1900 C   0  0  0  0  0  0  0  0  0  0  0  0
   17.3550  -14.5130   -3.9780 O   0  0  0  0  0  0  0  0  0  0  0  0
   17.1200  -15.9830   -3.9880 C   0  0  0  0  0  0  0  0  0  0  0  0
   18.3180  -16.7670   -3.7110 O   0  0  0  0  0  0  0  0  0  0  0  0
   19.0470  -15.7660   -3.0120 C   0  0  0  0  0  0  0  0  0  0  0  0
   20.1450  -15.9760   -2.2920 C   0  0  0  0  0  0  0  0  0  0  0  0
   20.7140  -14.8850   -1.6390 C   0  0  0  0  0  0  0  0  0  0  0  0
   21.9800  -15.0830   -0.8930 C   0  0  0  0  0  0  0  0  0  0  0  0
   23.1080  -14.4640   -1.7080 C   0  0  0  0  0  0  0  0  0  0  0  0
   23.3300  -12.9790   -1.3780 N   0  0  2  0  0  0  0  0  0  0  0  0
   23.9650  -12.7100   -2.0900 H   0  0  0  0  0  0  0  0  0  0  0  0
   24.0710  -12.7910   -0.1020 C   0  0  0  0  0  0  0  0  0  0  0  0
   24.1530  -11.3280   -0.0520 C   0  0  0  0  0  0  0  0  0  0  0  0
   22.7370  -10.9480   -0.3680 C   0  0  0  0  0  0  0  0  0  0  0  0
   22.2180  -11.9640   -1.4020 C   0  0  2  0  0  0  0  0  0  0  0  0
   21.9750  -11.2520   -2.7340 C   0  0  0  0  0  0  0  0  0  0  0  0
   20.7900  -10.6220   -2.6870 C   0  0  2  0  0  0  0  0  0  0  0  0
   18.7060  -10.8240   -1.2780 O   0  0  0  0  0  0  0  0  0  0  0  0
   18.4810  -10.0390   -0.7790 H   0  0  0  0  0  0  0  0  0  0  0  0
   20.3620   -9.8610   -3.7340 O   0  0  0  0  0  0  0  0  0  0  0  0
   20.8820  -10.0970   -5.0680 C   0  0  0  0  0  0  0  0  0  0  0  0
  1 22  1  6  0  0  0
  1  2  1  0  0  0  0
  2 19  1  6  0  0  0
  3 11  1  0  0  0  0
  3  2  1  0  0  0  0
  4  3  2  0  0  0  0
  5  9  2  0  0  0  0
  5  4  1  0  0  0  0
  6  5  1  0  0  0  0
  7  6  1  0  0  0  0
  7  8  1  0  0  0  0
  8  9  1  0  0  0  0
  9 10  1  0  0  0  0
 10 11  2  0  0  0  0
 11 12  1  0  0  0  0
 13 14  1  0  0  0  0
 13 12  1  0  0  0  0
 14 19  1  6  0  0  0
 14 16  1  0  0  0  0
 15 14  1  0  0  0  0
 16 17  1  0  0  0  0
 18 17  1  0  0  0  0
 19 20  1  6  0  0  0
 19 18  1  0  0  0  0
 20 21  1  0  0  0  0
 21 24  1  1  0  0  0
 21  1  1  0  0  0  0
 22 23  1  0  0  0  0
 25 24  1  0  0  0  0
M  END
>  <minimizedAffinity>
-8.19653893

$$$$

 OpenBabel12271915403D

 25 29  0  0  1  0  0  0  0  0999 V2000
   18.5280  -11.4910   -3.1530 C   0  0  1  0  0  0  0  0  0  0  0  0
   19.6560  -12.6680   -2.9430 C   0  0  1  0  0  0  0  0  0  0  0  0
   20.8540  -12.2900   -2.0160 C   0  0  0  0  0  0  0  0  0  0  0  0
   20.9990  -11.0000   -1.5160 C   0  0  0  0  0  0  0  0  0  0  0  0
   22.1190  -10.6640   -0.7500 C   0  0  0  0  0  0  0  0  0  0  0  0
   22.3680   -9.4480   -0.2140 O   0  0  0  0  0  0  0  0  0  0  0  0
   23.7910   -9.6960    0.1500 C   0  0  0  0  0  0  0  0  0  0  0  0
   24.1090  -11.1080    0.3240 O   0  0  0  0  0  0  0  0  0  0  0  0
   23.0590  -11.6430   -0.4720 C   0  0  0  0  0  0  0  0  0  0  0  0
   22.9760  -12.9030   -0.8900 C   0  0  0  0  0  0  0  0  0  0  0  0
   21.8950  -13.2520   -1.6960 C   0  0  0  0  0  0  0  0  0  0  0  0
   21.7430  -14.6670   -2.1110 C   0  0  0  0  0  0  0  0  0  0  0  0
   20.6080  -15.2770   -1.2980 C   0  0  0  0  0  0  0  0  0  0  0  0
   19.2380  -15.0980   -1.9700 N   0  0  2  0  0  0  0  0  0  0  0  0
   18.6230  -15.3980   -1.2520 H   0  0  0  0  0  0  0  0  0  0  0  0
   19.0290  -16.0560   -3.0880 C   0  0  0  0  0  0  0  0  0  0  0  0
   17.6790  -15.6830   -3.5160 C   0  0  0  0  0  0  0  0  0  0  0  0
   17.8010  -14.1890   -3.5840 C   0  0  0  0  0  0  0  0  0  0  0  0
   18.7240  -13.7590   -2.4300 C   0  0  2  0  0  0  0  0  0  0  0  0
   17.9180  -12.9530   -1.4100 C   0  0  0  0  0  0  0  0  0  0  0  0
   17.7940  -11.6890   -1.8460 C   0  0  2  0  0  0  0  0  0  0  0  0
   19.0170  -10.2390   -3.5110 O   0  0  0  0  0  0  0  0  0  0  0  0
   18.4810   -9.9200   -4.2370 H   0  0  0  0  0  0  0  0  0  0  0  0
   17.0650  -10.7760   -1.1430 O   0  0  0  0  0  0  0  0  0  0  0  0
   17.7210   -9.8930   -0.1960 C   0  0  0  0  0  0  0  0  0  0  0  0
  1 22  1  1  0  0  0
  1  2  1  0  0  0  0
  1 21  1  0  0  0  0
  2 19  1  1  0  0  0
  2  3  1  0  0  0  0
  3 11  2  0  0  0  0
  3  4  1  0  0  0  0
  4  5  2  0  0  0  0
  5  9  1  0  0  0  0
  5  6  1  0  0  0  0
  6  7  1  0  0  0  0
  7  8  1  0  0  0  0
  9  8  1  0  0  0  0
 10  9  2  0  0  0  0
 11 10  1  0  0  0  0
 12 11  1  0  0  0  0
 12 13  1  0  0  0  0
 14 19  1  6  0  0  0
 14 13  1  0  0  0  0
 14 15  1  0  0  0  0
 16 14  1  0  0  0  0
 17 16  1  0  0  0  0
 18 17  1  0  0  0  0
 19 18  1  6  0  0  0
 19 20  1  0  0  0  0
 21 20  1  0  0  0  0
 21 24  1  6  0  0  0
 23 22  1  0  0  0  0
 24 25  1  0  0  0  0
M  END
>  <minimizedAffinity>
-7.99029684

$$$$

 OpenBabel12271915403D

 25 29  0  0  1  0  0  0  0  0999 V2000
   19.8320  -11.3740   -2.8330 C   0  0  1  0  0  0  0  0  0  0  0  0
   20.6780  -12.7820   -2.7690 C   0  0  1  0  0  0  0  0  0  0  0  0
   22.0370  -12.7140   -2.0020 C   0  0  0  0  0  0  0  0  0  0  0  0
   22.5330  -11.5070   -1.5230 C   0  0  0  0  0  0  0  0  0  0  0  0
   23.7860  -11.4560   -0.9050 C   0  0  0  0  0  0  0  0  0  0  0  0
   24.3710  -10.3450   -0.4030 O   0  0  0  0  0  0  0  0  0  0  0  0
   25.7330  -10.9200   -0.2240 C   0  0  0  0  0  0  0  0  0  0  0  0
   25.7380  -12.3730   -0.0940 O   0  0  0  0  0  0  0  0  0  0  0  0
   24.5040  -12.6310   -0.7500 C   0  0  0  0  0  0  0  0  0  0  0  0
   24.0840  -13.8260   -1.1550 C   0  0  0  0  0  0  0  0  0  0  0  0
   22.8600  -13.8960   -1.8170 C   0  0  0  0  0  0  0  0  0  0  0  0
   22.3390  -15.2260   -2.2120 C   0  0  0  0  0  0  0  0  0  0  0  0
   21.2040  -15.5880   -1.2620 C   0  0  0  0  0  0  0  0  0  0  0  0
   19.8380  -15.0820   -1.7540 N   0  0  2  0  0  0  0  0  0  0  0  0
   19.2660  -15.2570   -0.9630 H   0  0  0  0  0  0  0  0  0  0  0  0
   19.2800  -15.9340   -2.8370 C   0  0  0  0  0  0  0  0  0  0  0  0
   18.0080  -15.2510   -3.0890 C   0  0  0  0  0  0  0  0  0  0  0  0
   18.4600  -13.8220   -3.1710 C   0  0  0  0  0  0  0  0  0  0  0  0
   19.5920  -13.6480   -2.1430 C   0  0  2  0  0  0  0  0  0  0  0  0
   19.1240  -12.7120   -1.0270 C   0  0  0  0  0  0  0  0  0  0  0  0
   19.2400  -11.4400   -1.4430 C   0  0  2  0  0  0  0  0  0  0  0  0
   20.5470  -10.2550   -3.2480 O   0  0  0  0  0  0  0  0  0  0  0  0
   20.0120   -9.8020   -3.8990 H   0  0  0  0  0  0  0  0  0  0  0  0
   18.8320  -10.4070   -0.6520 O   0  0  0  0  0  0  0  0  0  0  0  0
   17.4440   -9.9840   -0.6630 C   0  0  0  0  0  0  0  0  0  0  0  0
  1 22  1  1  0  0  0
  1  2  1  0  0  0  0
  1 21  1  0  0  0  0
  2 19  1  1  0  0  0
  2  3  1  0  0  0  0
  3 11  2  0  0  0  0
  3  4  1  0  0  0  0
  4  5  2  0  0  0  0
  5  9  1  0  0  0  0
  5  6  1  0  0  0  0
  6  7  1  0  0  0  0
  7  8  1  0  0  0  0
  9  8  1  0  0  0  0
 10  9  2  0  0  0  0
 11 10  1  0  0  0  0
 12 11  1  0  0  0  0
 12 13  1  0  0  0  0
 14 19  1  6  0  0  0
 14 13  1  0  0  0  0
 14 15  1  0  0  0  0
 16 14  1  0  0  0  0
 17 16  1  0  0  0  0
 18 17  1  0  0  0  0
 19 18  1  6  0  0  0
 19 20  1  0  0  0  0
 21 20  1  0  0  0  0
 21 24  1  6  0  0  0
 23 22  1  0  0  0  0
 25 24  1  0  0  0  0
M  END
>  <minimizedAffinity>
-7.45136881

$$$$

 OpenBabel12271915403D

 25 29  0  0  1  0  0  0  0  0999 V2000
   18.4750  -11.5780   -3.1990 C   0  0  1  0  0  0  0  0  0  0  0  0
   19.9290  -12.2770   -2.8850 C   0  0  1  0  0  0  0  0  0  0  0  0
   20.9980  -11.3400   -2.2400 C   0  0  0  0  0  0  0  0  0  0  0  0
   20.7540   -9.9820   -2.0670 C   0  0  0  0  0  0  0  0  0  0  0  0
   21.7530   -9.1480   -1.5560 C   0  0  0  0  0  0  0  0  0  0  0  0
   21.6340   -7.8170   -1.3460 O   0  0  0  0  0  0  0  0  0  0  0  0
   23.0810   -7.5350   -1.1330 C   0  0  0  0  0  0  0  0  0  0  0  0
   23.8410   -8.6990   -0.6910 O   0  0  0  0  0  0  0  0  0  0  0  0
   22.9700   -9.7030   -1.1950 C   0  0  0  0  0  0  0  0  0  0  0  0
   23.2670  -10.9940   -1.3040 C   0  0  0  0  0  0  0  0  0  0  0  0
   22.3070  -11.8390   -1.8560 C   0  0  0  0  0  0  0  0  0  0  0  0
   22.5890  -13.2930   -1.9180 C   0  0  0  0  0  0  0  0  0  0  0  0
   21.7570  -13.9800   -0.8420 C   0  0  0  0  0  0  0  0  0  0  0  0
   20.3630  -14.3890   -1.3440 N   0  0  2  0  0  0  0  0  0  0  0  0
   19.9200  -14.6610   -0.4990 H   0  0  0  0  0  0  0  0  0  0  0  0
   20.4040  -15.6190   -2.1780 C   0  0  0  0  0  0  0  0  0  0  0  0
   18.9810  -15.7800   -2.4910 C   0  0  0  0  0  0  0  0  0  0  0  0
   18.6180  -14.3860   -2.9090 C   0  0  0  0  0  0  0  0  0  0  0  0
   19.4230  -13.4240   -2.0180 C   0  0  2  0  0  0  0  0  0  0  0  0
   18.4660  -12.6570   -1.1050 C   0  0  0  0  0  0  0  0  0  0  0  0
   17.9210  -11.6400   -1.7940 C   0  0  2  0  0  0  0  0  0  0  0  0
   18.5180  -10.3720   -3.8930 O   0  0  0  0  0  0  0  0  0  0  0  0
   17.8660  -10.4220   -4.5910 H   0  0  0  0  0  0  0  0  0  0  0  0
   16.9830  -10.8330   -1.2210 O   0  0  0  0  0  0  0  0  0  0  0  0
   17.3850   -9.7930   -0.2910 C   0  0  0  0  0  0  0  0  0  0  0  0
  1 22  1  1  0  0  0
  1  2  1  0  0  0  0
  1 21  1  0  0  0  0
  2  3  1  0  0  0  0
  2 19  1  1  0  0  0
  3  4  2  0  0  0  0
  3 11  1  0  0  0  0
  4  5  1  0  0  0  0
  5  6  1  0  0  0  0
  5  9  2  0  0  0  0
  6  7  1  0  0  0  0
  7  8  1  0  0  0  0
  9  8  1  0  0  0  0
 10  9  1  0  0  0  0
 11 10  2  0  0  0  0
 12 11  1  0  0  0  0
 12 13  1  0  0  0  0
 14 19  1  6  0  0  0
 14 13  1  0  0  0  0
 14 15  1  0  0  0  0
 16 14  1  0  0  0  0
 17 16  1  0  0  0  0
 18 17  1  0  0  0  0
 19 18  1  6  0  0  0
 19 20  1  0  0  0  0
 21 24  1  6  0  0  0
 21 20  1  0  0  0  0
 23 22  1  0  0  0  0
 24 25  1  0  0  0  0
M  END
>  <minimizedAffinity>
-7.2923336

$$$$

 OpenBabel12271915403D

 25 29  0  0  1  0  0  0  0  0999 V2000
   20.3310  -14.8400   -0.4810 C   0  0  1  0  0  0  0  0  0  0  0  0
   19.6250  -13.4160   -0.9040 C   0  0  1  0  0  0  0  0  0  0  0  0
   20.5830  -12.1840   -0.9560 C   0  0  0  0  0  0  0  0  0  0  0  0
   21.9080  -12.2840   -0.5490 C   0  0  0  0  0  0  0  0  0  0  0  0
   22.7270  -11.1510   -0.5340 C   0  0  0  0  0  0  0  0  0  0  0  0
   24.0260  -11.1240   -0.1570 O   0  0  0  0  0  0  0  0  0  0  0  0
   24.1600   -9.6440   -0.0650 C   0  0  0  0  0  0  0  0  0  0  0  0
   23.1910   -8.9200   -0.8810 O   0  0  0  0  0  0  0  0  0  0  0  0
   22.2050   -9.9410   -0.9620 C   0  0  0  0  0  0  0  0  0  0  0  0
   20.9580   -9.7730   -1.3920 C   0  0  0  0  0  0  0  0  0  0  0  0
   20.1070  -10.8750   -1.3710 C   0  0  0  0  0  0  0  0  0  0  0  0
   18.7360  -10.7270   -1.9150 C   0  0  0  0  0  0  0  0  0  0  0  0
   18.6880  -11.4280   -3.2670 C   0  0  0  0  0  0  0  0  0  0  0  0
   18.3120  -12.9130   -3.1500 N   0  0  2  0  0  0  0  0  0  0  0  0
   18.4830  -13.2350   -4.0730 H   0  0  0  0  0  0  0  0  0  0  0  0
   16.8540  -13.1090   -2.9330 C   0  0  0  0  0  0  0  0  0  0  0  0
   16.7820  -14.5720   -2.8810 C   0  0  0  0  0  0  0  0  0  0  0  0
   17.9110  -14.8820   -1.9420 C   0  0  0  0  0  0  0  0  0  0  0  0
   19.0310  -13.8670   -2.2320 C   0  0  2  0  0  0  0  0  0  0  0  0
   20.2380  -14.5990   -2.8220 C   0  0  0  0  0  0  0  0  0  0  0  0
   20.9400  -15.1620   -1.8260 C   0  0  2  0  0  0  0  0  0  0  0  0
   21.1170  -14.8100    0.6670 O   0  0  0  0  0  0  0  0  0  0  0  0
   20.8740  -15.5680    1.1980 H   0  0  0  0  0  0  0  0  0  0  0  0
   22.0380  -15.9260   -2.0920 O   0  0  0  0  0  0  0  0  0  0  0  0
   23.3070  -15.2950   -2.4060 C   0  0  0  0  0  0  0  0  0  0  0  0
  1 22  1  1  0  0  0
  2 19  1  6  0  0  0
  2  1  1  0  0  0  0
  3  2  1  0  0  0  0
  3  4  2  0  0  0  0
  4  5  1  0  0  0  0
  5  6  1  0  0  0  0
  6  7  1  0  0  0  0
  8  7  1  0  0  0  0
  9  8  1  0  0  0  0
  9  5  2  0  0  0  0
 10 11  2  0  0  0  0
 10  9  1  0  0  0  0
 11  3  1  0  0  0  0
 12 11  1  0  0  0  0
 13 14  1  0  0  0  0
 13 12  1  0  0  0  0
 14 16  1  0  0  0  0
 14 19  1  1  0  0  0
 15 14  1  0  0  0  0
 16 17  1  0  0  0  0
 17 18  1  0  0  0  0
 19 20  1  6  0  0  0
 19 18  1  0  0  0  0
 20 21  1  0  0  0  0
 21 24  1  6  0  0  0
 21  1  1  0  0  0  0
 22 23  1  0  0  0  0
 25 24  1  0  0  0  0
M  END
>  <minimizedAffinity>
-7.21111298

$$$$

 OpenBabel12271915403D

 25 29  0  0  1  0  0  0  0  0999 V2000
   19.5460  -11.2810   -3.2950 C   0  0  1  0  0  0  0  0  0  0  0  0
   20.8730  -12.1090   -2.7890 C   0  0  1  0  0  0  0  0  0  0  0  0
   22.2420  -11.4070   -3.0530 C   0  0  0  0  0  0  0  0  0  0  0  0
   22.3160  -10.2220   -3.7780 C   0  0  0  0  0  0  0  0  0  0  0  0
   23.5580   -9.6500   -4.0660 C   0  0  0  0  0  0  0  0  0  0  0  0
   23.7550   -8.5070   -4.7620 O   0  0  0  0  0  0  0  0  0  0  0  0
   25.2210   -8.6690   -4.9700 C   0  0  0  0  0  0  0  0  0  0  0  0
   25.8580   -9.5270   -3.9780 O   0  0  0  0  0  0  0  0  0  0  0  0
   24.7050  -10.2640   -3.5900 C   0  0  0  0  0  0  0  0  0  0  0  0
   24.7140  -11.3800   -2.8680 C   0  0  0  0  0  0  0  0  0  0  0  0
   23.4920  -11.9970   -2.6070 C   0  0  0  0  0  0  0  0  0  0  0  0
   23.4720  -13.2010   -1.7420 C   0  0  0  0  0  0  0  0  0  0  0  0
   22.9130  -12.7940   -0.3850 C   0  0  0  0  0  0  0  0  0  0  0  0
   21.3820  -12.9130   -0.3160 N   0  0  2  0  0  0  0  0  0  0  0  0
   21.1870  -12.4700    0.5490 H   0  0  0  0  0  0  0  0  0  0  0  0
   20.9340  -14.3200   -0.1440 C   0  0  0  0  0  0  0  0  0  0  0  0
   19.4810  -14.1370   -0.0920 C   0  0  0  0  0  0  0  0  0  0  0  0
   19.2630  -13.2290   -1.2670 C   0  0  0  0  0  0  0  0  0  0  0  0
   20.4690  -12.2750   -1.3300 C   0  0  2  0  0  0  0  0  0  0  0  0
   20.0040  -10.8500   -1.0250 C   0  0  0  0  0  0  0  0  0  0  0  0
   19.4630  -10.3180   -2.1330 C   0  0  2  0  0  0  0  0  0  0  0  0
   19.5860  -10.8130   -4.6050 O   0  0  0  0  0  0  0  0  0  0  0  0
   18.7480  -11.0350   -5.0120 H   0  0  0  0  0  0  0  0  0  0  0  0
   18.9170   -9.0690   -2.1120 O   0  0  0  0  0  0  0  0  0  0  0  0
   19.7560   -7.9020   -2.3160 C   0  0  0  0  0  0  0  0  0  0  0  0
  1 22  1  6  0  0  0
  1  2  1  0  0  0  0
  1 21  1  0  0  0  0
  2 19  1  1  0  0  0
  3  2  1  0  0  0  0
  3 11  2  0  0  0  0
  4  3  1  0  0  0  0
  5  4  2  0  0  0  0
  5  9  1  0  0  0  0
  6  5  1  0  0  0  0
  7  6  1  0  0  0  0
  7  8  1  0  0  0  0
  8  9  1  0  0  0  0
  9 10  2  0  0  0  0
 10 11  1  0  0  0  0
 11 12  1  0  0  0  0
 12 13  1  0  0  0  0
 13 14  1  0  0  0  0
 14 19  1  6  0  0  0
 14 16  1  0  0  0  0
 14 15  1  0  0  0  0
 16 17  1  0  0  0  0
 18 17  1  0  0  0  0
 19 18  1  6  0  0  0
 19 20  1  0  0  0  0
 21 24  1  1  0  0  0
 21 20  1  0  0  0  0
 23 22  1  0  0  0  0
 25 24  1  0  0  0  0
M  END
>  <minimizedAffinity>
-7.12901688

$$$$

 OpenBabel12271915403D

 25 29  0  0  1  0  0  0  0  0999 V2000
   19.6410  -13.8610   -0.8550 C   0  0  1  0  0  0  0  0  0  0  0  0
   20.1600  -12.3150   -0.6520 C   0  0  1  0  0  0  0  0  0  0  0  0
   21.7090  -12.1240   -0.6360 C   0  0  0  0  0  0  0  0  0  0  0  0
   22.5690  -13.2160   -0.6690 C   0  0  0  0  0  0  0  0  0  0  0  0
   23.9520  -13.0260   -0.5780 C   0  0  0  0  0  0  0  0  0  0  0  0
   24.8830  -14.0070   -0.5970 O   0  0  0  0  0  0  0  0  0  0  0  0
   26.0330  -13.1760   -0.1450 C   0  0  0  0  0  0  0  0  0  0  0  0
   25.8660  -11.7530   -0.4190 O   0  0  0  0  0  0  0  0  0  0  0  0
   24.4460  -11.7350   -0.4910 C   0  0  0  0  0  0  0  0  0  0  0  0
   23.6900  -10.6410   -0.4830 C   0  0  0  0  0  0  0  0  0  0  0  0
   22.3070  -10.8050   -0.5230 C   0  0  0  0  0  0  0  0  0  0  0  0
   21.4490   -9.5990   -0.5900 C   0  0  0  0  0  0  0  0  0  0  0  0
   20.9080   -9.4840   -2.0090 C   0  0  0  0  0  0  0  0  0  0  0  0
   19.5850  -10.2420   -2.2010 N   0  0  2  0  0  0  0  0  0  0  0  0
   19.4710  -10.1970   -3.1850 H   0  0  0  0  0  0  0  0  0  0  0  0
   18.4250   -9.5020   -1.6380 C   0  0  0  0  0  0  0  0  0  0  0  0
   17.3320  -10.4200   -1.9700 C   0  0  0  0  0  0  0  0  0  0  0  0
   17.9070  -11.7290   -1.5160 C   0  0  0  0  0  0  0  0  0  0  0  0
   19.4140  -11.6910   -1.8250 C   0  0  2  0  0  0  0  0  0  0  0  0
   19.7350  -12.7180   -2.9130 C   0  0  0  0  0  0  0  0  0  0  0  0
   19.8310  -13.9350   -2.3530 C   0  0  2  0  0  0  0  0  0  0  0  0
   20.2200  -14.8100   -0.0180 O   0  0  0  0  0  0  0  0  0  0  0  0
   19.5110  -15.3510    0.3310 H   0  0  0  0  0  0  0  0  0  0  0  0
   20.0550  -15.0400   -3.1200 O   0  0  0  0  0  0  0  0  0  0  0  0
   19.0090  -16.0320   -3.2930 C   0  0  0  0  0  0  0  0  0  0  0  0
  1  2  1  0  0  0  0
  1 22  1  1  0  0  0
  2 19  1  6  0  0  0
  2  3  1  0  0  0  0
  3 11  1  0  0  0  0
  4  3  2  0  0  0  0
  4  5  1  0  0  0  0
  5  9  2  0  0  0  0
  6  5  1  0  0  0  0
  6  7  1  0  0  0  0
  8  7  1  0  0  0  0
  9 10  1  0  0  0  0
  9  8  1  0  0  0  0
 11 10  2  0  0  0  0
 12 11  1  0  0  0  0
 13 12  1  0  0  0  0
 14 13  1  0  0  0  0
 14 19  1  1  0  0  0
 14 16  1  0  0  0  0
 15 14  1  0  0  0  0
 17 16  1  0  0  0  0
 17 18  1  0  0  0  0
 19 20  1  6  0  0  0
 19 18  1  0  0  0  0
 20 21  1  0  0  0  0
 21 24  1  6  0  0  0
 21  1  1  0  0  0  0
 22 23  1  0  0  0  0
 25 24  1  0  0  0  0
M  END
>  <minimizedAffinity>
-7.03009987

$$$$

 OpenBabel12271915403D

 25 29  0  0  1  0  0  0  0  0999 V2000
   22.7820  -10.7730   -0.6250 C   0  0  1  0  0  0  0  0  0  0  0  0
   21.6910  -12.0020   -0.6390 C   0  0  1  0  0  0  0  0  0  0  0  0
   20.2260  -11.5940   -0.9920 C   0  0  0  0  0  0  0  0  0  0  0  0
   19.8700  -10.2610   -1.1580 C   0  0  0  0  0  0  0  0  0  0  0  0
   18.5380   -9.9130   -1.4000 C   0  0  0  0  0  0  0  0  0  0  0  0
   18.0730   -8.6550   -1.5750 O   0  0  0  0  0  0  0  0  0  0  0  0
   16.6240   -8.9760   -1.4510 C   0  0  0  0  0  0  0  0  0  0  0  0
   16.3070  -10.3650   -1.7620 O   0  0  0  0  0  0  0  0  0  0  0  0
   17.5910  -10.9190   -1.5050 C   0  0  0  0  0  0  0  0  0  0  0  0
   17.8600  -12.2160   -1.3880 C   0  0  0  0  0  0  0  0  0  0  0  0
   19.1710  -12.5870   -1.0980 C   0  0  0  0  0  0  0  0  0  0  0  0
   19.5060  -14.0290   -1.0360 C   0  0  0  0  0  0  0  0  0  0  0  0
   20.2830  -14.3860   -2.2970 C   0  0  0  0  0  0  0  0  0  0  0  0
   21.7990  -14.1890   -2.1330 N   0  0  2  0  0  0  0  0  0  0  0  0
   22.1160  -14.3060   -3.0650 H   0  0  0  0  0  0  0  0  0  0  0  0
   22.4300  -15.2920   -1.3620 C   0  0  0  0  0  0  0  0  0  0  0  0
   23.8320  -14.8650   -1.3790 C   0  0  0  0  0  0  0  0  0  0  0  0
   23.6980  -13.4210   -0.9930 C   0  0  0  0  0  0  0  0  0  0  0  0
   22.4040  -12.8990   -1.6430 C   0  0  2  0  0  0  0  0  0  0  0  0
   22.7560  -11.8640   -2.7120 C   0  0  0  0  0  0  0  0  0  0  0  0
   22.9930  -10.6820   -2.1190 C   0  0  2  0  0  0  0  0  0  0  0  0
   22.4200   -9.6480    0.1110 O   0  0  0  0  0  0  0  0  0  0  0  0
   23.1750   -9.4030    0.6450 H   0  0  0  0  0  0  0  0  0  0  0  0
   23.3860   -9.6010   -2.8500 O   0  0  0  0  0  0  0  0  0  0  0  0
   23.2550   -9.6100   -4.2960 C   0  0  0  0  0  0  0  0  0  0  0  0
  1 22  1  6  0  0  0
  2 19  1  6  0  0  0
  2  1  1  0  0  0  0
  3  2  1  0  0  0  0
  4  3  2  0  0  0  0
  5  4  1  0  0  0  0
  6  7  1  0  0  0  0
  6  5  1  0  0  0  0
  8  9  1  0  0  0  0
  8  7  1  0  0  0  0
  9  5  2  0  0  0  0
  9 10  1  0  0  0  0
 10 11  2  0  0  0  0
 11 12  1  0  0  0  0
 11  3  1  0  0  0  0
 13 14  1  0  0  0  0
 13 12  1  0  0  0  0
 14 19  1  1  0  0  0
 14 16  1  0  0  0  0
 15 14  1  0  0  0  0
 17 16  1  0  0  0  0
 17 18  1  0  0  0  0
 19 20  1  6  0  0  0
 19 18  1  0  0  0  0
 20 21  1  0  0  0  0
 21 24  1  1  0  0  0
 21  1  1  0  0  0  0
 22 23  1  0  0  0  0
 25 24  1  0  0  0  0
M  END
>  <minimizedAffinity>
-6.96267128

$$$$
