
 OpenBabel12271915483D

 22 23  0  0  1  0  0  0  0  0999 V2000
   22.3000  -14.4670   -1.7180 C   0  0  2  0  0  0  0  0  0  0  0  0
   21.3550  -13.6620   -0.7740 C   0  0  2  0  0  0  0  0  0  0  0  0
   20.0030  -13.8810   -1.3210 O   0  0  0  0  0  0  0  0  0  0  0  0
   20.1050  -15.2130   -1.8440 C   0  0  2  0  0  0  0  0  0  0  0  0
   21.3790  -15.1860   -2.6710 C   0  0  0  0  0  0  0  0  0  0  0  0
   18.8510  -15.5760   -2.5930 C   0  0  0  0  0  0  0  0  0  0  0  0
   18.7760  -16.6520   -3.4860 C   0  0  0  0  0  0  0  0  0  0  0  0
   17.5960  -16.9650   -4.1180 C   0  0  0  0  0  0  0  0  0  0  0  0
   17.5040  -18.1030   -5.0830 C   0  0  0  0  0  0  0  0  0  0  0  0
   16.5010  -16.1480   -3.8360 C   0  0  0  0  0  0  0  0  0  0  0  0
   16.4760  -15.1130   -2.9890 N   0  0  0  0  0  0  0  0  0  0  0  0
   17.6790  -14.8520   -2.3990 C   0  0  0  0  0  0  0  0  0  0  0  0
   15.3200  -16.4190   -4.4390 O   0  0  0  0  0  0  0  0  0  0  0  0
   14.6660  -15.8570   -3.9520 H   0  0  0  0  0  0  0  0  0  0  0  0
   22.9870  -15.5190   -0.9870 O   0  0  0  0  0  0  0  0  0  0  0  0
   23.5910  -15.9240   -1.6100 H   0  0  0  0  0  0  0  0  0  0  0  0
   21.7030  -12.1950   -0.6720 C   0  0  0  0  0  0  0  0  0  0  0  0
   22.9290  -11.9060   -1.2730 O   0  0  0  0  0  0  0  0  0  0  0  0
   24.1010  -11.3230   -0.2920 P   0  0  0  0  0  0  0  0  0  0  0  0
   25.1700  -10.8560   -1.3520 O   0  0  0  0  0  0  0  0  0  0  0  0
   23.4090  -10.2070    0.4430 O   0  0  0  0  0  0  0  0  0  0  0  0
   24.5400  -12.5270    0.5000 O   0  0  0  0  0  0  0  0  0  0  0  0
  1 15  1  1  0  0  0
  1  2  1  0  0  0  0
  2 17  1  6  0  0  0
  3  2  1  0  0  0  0
  4  6  1  6  0  0  0
  4  3  1  0  0  0  0
  5  4  1  0  0  0  0
  5  1  1  0  0  0  0
  6 12  2  0  0  0  0
  7  6  1  0  0  0  0
  8 10  1  0  0  0  0
  8  7  2  0  0  0  0
  9  8  1  0  0  0  0
 10 11  2  0  0  0  0
 11 12  1  0  0  0  0
 13 14  1  0  0  0  0
 13 10  1  0  0  0  0
 16 15  1  0  0  0  0
 18 17  1  0  0  0  0
 18 19  1  0  0  0  0
 19 21  1  0  0  0  0
 19 22  1  0  0  0  0
 20 19  2  0  0  0  0
M  END
>  <minimizedAffinity>
-8.06524944

$$$$

 OpenBabel12271915483D

 22 23  0  0  1  0  0  0  0  0999 V2000
   22.3400  -14.4600   -1.7270 C   0  0  2  0  0  0  0  0  0  0  0  0
   21.4120  -13.6350   -0.7820 C   0  0  2  0  0  0  0  0  0  0  0  0
   20.0530  -13.8440   -1.3160 O   0  0  0  0  0  0  0  0  0  0  0  0
   20.1360  -15.1820   -1.8270 C   0  0  2  0  0  0  0  0  0  0  0  0
   21.4040  -15.1780   -2.6640 C   0  0  0  0  0  0  0  0  0  0  0  0
   18.8710  -15.5390   -2.5610 C   0  0  0  0  0  0  0  0  0  0  0  0
   18.7860  -16.6020   -3.4670 C   0  0  0  0  0  0  0  0  0  0  0  0
   17.5970  -16.9100   -4.0860 C   0  0  0  0  0  0  0  0  0  0  0  0
   17.4940  -18.0360   -5.0650 C   0  0  0  0  0  0  0  0  0  0  0  0
   16.5050  -16.1010   -3.7760 C   0  0  0  0  0  0  0  0  0  0  0  0
   16.4900  -15.0770   -2.9140 N   0  0  0  0  0  0  0  0  0  0  0  0
   17.7010  -14.8210   -2.3400 C   0  0  0  0  0  0  0  0  0  0  0  0
   15.3150  -16.3680   -4.3650 O   0  0  0  0  0  0  0  0  0  0  0  0
   14.6670  -15.8140   -3.8600 H   0  0  0  0  0  0  0  0  0  0  0  0
   23.0220  -15.5120   -0.9900 O   0  0  0  0  0  0  0  0  0  0  0  0
   23.6160  -15.9290   -1.6140 H   0  0  0  0  0  0  0  0  0  0  0  0
   21.7770  -12.1700   -0.6990 C   0  0  0  0  0  0  0  0  0  0  0  0
   20.9090  -11.3720   -1.4460 O   0  0  0  0  0  0  0  0  0  0  0  0
   21.4780  -10.8210   -2.8770 P   0  0  0  0  0  0  0  0  0  0  0  0
   23.0220  -11.0840   -2.7020 O   0  0  0  0  0  0  0  0  0  0  0  0
   20.7950  -11.7080   -3.8820 O   0  0  0  0  0  0  0  0  0  0  0  0
   21.1220   -9.3580   -2.8670 O   0  0  0  0  0  0  0  0  0  0  0  0
  1 15  1  1  0  0  0
  1  2  1  0  0  0  0
  2 17  1  6  0  0  0
  3  2  1  0  0  0  0
  4  6  1  6  0  0  0
  4  3  1  0  0  0  0
  5  4  1  0  0  0  0
  5  1  1  0  0  0  0
  6 12  2  0  0  0  0
  7  6  1  0  0  0  0
  8 10  1  0  0  0  0
  8  7  2  0  0  0  0
  9  8  1  0  0  0  0
 10 11  2  0  0  0  0
 11 12  1  0  0  0  0
 13 14  1  0  0  0  0
 13 10  1  0  0  0  0
 16 15  1  0  0  0  0
 18 17  1  0  0  0  0
 19 22  1  0  0  0  0
 19 20  1  0  0  0  0
 19 18  1  0  0  0  0
 21 19  2  0  0  0  0
M  END
>  <minimizedAffinity>
-7.87142324

$$$$

 OpenBabel12271915483D

 22 23  0  0  1  0  0  0  0  0999 V2000
   19.6150  -13.7450   -0.9900 C   0  0  2  0  0  0  0  0  0  0  0  0
   20.2740  -15.0310   -1.5760 C   0  0  2  0  0  0  0  0  0  0  0  0
   21.7150  -14.7200   -1.6360 O   0  0  0  0  0  0  0  0  0  0  0  0
   21.8810  -13.8590   -0.5010 C   0  0  2  0  0  0  0  0  0  0  0  0
   20.7670  -12.8360   -0.6490 C   0  0  0  0  0  0  0  0  0  0  0  0
   23.2780  -13.3000   -0.4700 C   0  0  0  0  0  0  0  0  0  0  0  0
   23.5550  -11.9350   -0.3380 C   0  0  0  0  0  0  0  0  0  0  0  0
   24.8510  -11.4780   -0.2800 C   0  0  0  0  0  0  0  0  0  0  0  0
   25.1600  -10.0210   -0.1510 C   0  0  0  0  0  0  0  0  0  0  0  0
   25.8560  -12.4400   -0.3770 C   0  0  0  0  0  0  0  0  0  0  0  0
   25.6860  -13.7620   -0.4890 N   0  0  0  0  0  0  0  0  0  0  0  0
   24.3790  -14.1480   -0.5470 C   0  0  0  0  0  0  0  0  0  0  0  0
   27.1460  -12.0330   -0.3260 O   0  0  0  0  0  0  0  0  0  0  0  0
   27.6590  -12.8720   -0.2130 H   0  0  0  0  0  0  0  0  0  0  0  0
   18.9660  -14.0300    0.2790 O   0  0  0  0  0  0  0  0  0  0  0  0
   18.5320  -13.2190    0.5440 H   0  0  0  0  0  0  0  0  0  0  0  0
   19.7190  -15.4410   -2.9210 C   0  0  0  0  0  0  0  0  0  0  0  0
   18.4990  -16.1090   -2.8010 O   0  0  0  0  0  0  0  0  0  0  0  0
   17.1930  -15.3580   -3.4390 P   0  0  0  0  0  0  0  0  0  0  0  0
   16.3720  -15.0320   -2.1340 O   0  0  0  0  0  0  0  0  0  0  0  0
   17.7890  -14.1600   -4.1270 O   0  0  0  0  0  0  0  0  0  0  0  0
   16.5490  -16.4180   -4.2930 O   0  0  0  0  0  0  0  0  0  0  0  0
  1  5  1  0  0  0  0
  1 15  1  1  0  0  0
  2 17  1  6  0  0  0
  2  1  1  0  0  0  0
  3  2  1  0  0  0  0
  3  4  1  0  0  0  0
  4  6  1  6  0  0  0
  5  4  1  0  0  0  0
  6  7  1  0  0  0  0
  7  8  2  0  0  0  0
  8  9  1  0  0  0  0
 10 13  1  0  0  0  0
 10  8  1  0  0  0  0
 11 10  2  0  0  0  0
 12 11  1  0  0  0  0
 12  6  2  0  0  0  0
 13 14  1  0  0  0  0
 15 16  1  0  0  0  0
 17 18  1  0  0  0  0
 19 18  1  0  0  0  0
 19 20  1  0  0  0  0
 21 19  1  0  0  0  0
 22 19  2  0  0  0  0
M  END
>  <minimizedAffinity>
-7.11541462

$$$$

 OpenBabel12271915483D

 22 23  0  0  1  0  0  0  0  0999 V2000
   23.9100  -14.0100   -1.4180 C   0  0  2  0  0  0  0  0  0  0  0  0
   23.2910  -13.1370   -0.2830 C   0  0  2  0  0  0  0  0  0  0  0  0
   21.8360  -13.1900   -0.5220 O   0  0  0  0  0  0  0  0  0  0  0  0
   21.6700  -14.5080   -1.0640 C   0  0  2  0  0  0  0  0  0  0  0  0
   22.7290  -14.5940   -2.1500 C   0  0  0  0  0  0  0  0  0  0  0  0
   20.2510  -14.7090   -1.5210 C   0  0  0  0  0  0  0  0  0  0  0  0
   19.8880  -15.6240   -2.5160 C   0  0  0  0  0  0  0  0  0  0  0  0
   18.5720  -15.7960   -2.8730 C   0  0  0  0  0  0  0  0  0  0  0  0
   18.1710  -16.7620   -3.9420 C   0  0  0  0  0  0  0  0  0  0  0  0
   17.6370  -15.0020   -2.2090 C   0  0  0  0  0  0  0  0  0  0  0  0
   17.8890  -14.1160   -1.2390 N   0  0  0  0  0  0  0  0  0  0  0  0
   19.2130  -13.9890   -0.9370 C   0  0  0  0  0  0  0  0  0  0  0  0
   16.3290  -15.1380   -2.5320 O   0  0  0  0  0  0  0  0  0  0  0  0
   15.8520  -14.6410   -1.8190 H   0  0  0  0  0  0  0  0  0  0  0  0
   24.6170  -15.1530   -0.8630 O   0  0  0  0  0  0  0  0  0  0  0  0
   25.0210  -15.6020   -1.6060 H   0  0  0  0  0  0  0  0  0  0  0  0
   23.8170  -11.7200   -0.2500 C   0  0  0  0  0  0  0  0  0  0  0  0
   22.9200  -10.8180   -0.8260 O   0  0  0  0  0  0  0  0  0  0  0  0
   23.3110  -10.2520   -2.3100 P   0  0  0  0  0  0  0  0  0  0  0  0
   24.8600  -10.5400   -2.3390 O   0  0  0  0  0  0  0  0  0  0  0  0
   22.4900  -11.1130   -3.2320 O   0  0  0  0  0  0  0  0  0  0  0  0
   22.9830   -8.7840   -2.2340 O   0  0  0  0  0  0  0  0  0  0  0  0
  1 15  1  1  0  0  0
  1  2  1  0  0  0  0
  2 17  1  6  0  0  0
  3  2  1  0  0  0  0
  4  6  1  6  0  0  0
  4  3  1  0  0  0  0
  5  1  1  0  0  0  0
  5  4  1  0  0  0  0
  6 12  2  0  0  0  0
  7  6  1  0  0  0  0
  8  7  2  0  0  0  0
  8 10  1  0  0  0  0
  9  8  1  0  0  0  0
 10 11  2  0  0  0  0
 11 12  1  0  0  0  0
 13 10  1  0  0  0  0
 13 14  1  0  0  0  0
 16 15  1  0  0  0  0
 18 17  1  0  0  0  0
 19 22  1  0  0  0  0
 19 18  1  0  0  0  0
 20 19  1  0  0  0  0
 21 19  2  0  0  0  0
M  END
>  <minimizedAffinity>
-7.06463289

$$$$

 OpenBabel12271915483D

 22 23  0  0  1  0  0  0  0  0999 V2000
   18.4940  -14.0540   -1.2280 C   0  0  2  0  0  0  0  0  0  0  0  0
   18.6980  -12.8070   -2.1420 C   0  0  2  0  0  0  0  0  0  0  0  0
   20.0990  -12.4030   -1.9170 O   0  0  0  0  0  0  0  0  0  0  0  0
   20.7380  -13.6640   -1.6770 C   0  0  2  0  0  0  0  0  0  0  0  0
   19.8520  -14.3330   -0.6380 C   0  0  0  0  0  0  0  0  0  0  0  0
   22.1720  -13.4540   -1.2710 C   0  0  0  0  0  0  0  0  0  0  0  0
   22.6520  -12.2460   -0.7510 C   0  0  0  0  0  0  0  0  0  0  0  0
   23.9640  -12.1150   -0.3620 C   0  0  0  0  0  0  0  0  0  0  0  0
   24.4920  -10.8270    0.1840 C   0  0  0  0  0  0  0  0  0  0  0  0
   24.7790  -13.2340   -0.5320 C   0  0  0  0  0  0  0  0  0  0  0  0
   24.4050  -14.4280   -1.0040 N   0  0  0  0  0  0  0  0  0  0  0  0
   23.0940  -14.4900   -1.3770 C   0  0  0  0  0  0  0  0  0  0  0  0
   26.0790  -13.1470   -0.1630 O   0  0  0  0  0  0  0  0  0  0  0  0
   26.3980  -14.0850   -0.1850 H   0  0  0  0  0  0  0  0  0  0  0  0
   18.1750  -15.2300   -2.0220 O   0  0  0  0  0  0  0  0  0  0  0  0
   18.0010  -15.9330   -1.3960 H   0  0  0  0  0  0  0  0  0  0  0  0
   17.7250  -11.6830   -1.8650 C   0  0  0  0  0  0  0  0  0  0  0  0
   17.7550  -11.2850   -0.5270 O   0  0  0  0  0  0  0  0  0  0  0  0
   17.6100   -9.6810   -0.2430 P   0  0  0  0  0  0  0  0  0  0  0  0
   19.1010   -9.2090   -0.4420 O   0  0  0  0  0  0  0  0  0  0  0  0
   16.6550   -9.2280   -1.3130 O   0  0  0  0  0  0  0  0  0  0  0  0
   17.1530   -9.6090    1.1900 O   0  0  0  0  0  0  0  0  0  0  0  0
  1 15  1  6  0  0  0
  1  5  1  0  0  0  0
  2  3  1  0  0  0  0
  2 17  1  1  0  0  0
  2  1  1  0  0  0  0
  3  4  1  0  0  0  0
  4  6  1  1  0  0  0
  4  5  1  0  0  0  0
  6  7  1  0  0  0  0
  7  8  2  0  0  0  0
  8  9  1  0  0  0  0
 10  8  1  0  0  0  0
 10 13  1  0  0  0  0
 11 10  2  0  0  0  0
 12  6  2  0  0  0  0
 12 11  1  0  0  0  0
 14 13  1  0  0  0  0
 15 16  1  0  0  0  0
 17 18  1  0  0  0  0
 18 19  1  0  0  0  0
 19 22  1  0  0  0  0
 20 19  1  0  0  0  0
 21 19  2  0  0  0  0
M  END
>  <minimizedAffinity>
-6.46556807

$$$$

 OpenBabel12271915483D

 22 23  0  0  1  0  0  0  0  0999 V2000
   23.1130  -12.7320   -1.4460 C   0  0  2  0  0  0  0  0  0  0  0  0
   22.2540  -11.7720   -0.5660 C   0  0  2  0  0  0  0  0  0  0  0  0
   20.8570  -12.1190   -0.8860 O   0  0  0  0  0  0  0  0  0  0  0  0
   20.9520  -13.5270   -1.1470 C   0  0  2  0  0  0  0  0  0  0  0  0
   22.1170  -13.6420   -2.1160 C   0  0  0  0  0  0  0  0  0  0  0  0
   19.6340  -14.0540   -1.6470 C   0  0  0  0  0  0  0  0  0  0  0  0
   19.5250  -15.1490   -2.5130 C   0  0  0  0  0  0  0  0  0  0  0  0
   18.2950  -15.6150   -2.9120 C   0  0  0  0  0  0  0  0  0  0  0  0
   18.1650  -16.7770   -3.8450 C   0  0  0  0  0  0  0  0  0  0  0  0
   17.1810  -14.9310   -2.4270 C   0  0  0  0  0  0  0  0  0  0  0  0
   17.1890  -13.8890   -1.5880 N   0  0  0  0  0  0  0  0  0  0  0  0
   18.4390  -13.4730   -1.2350 C   0  0  0  0  0  0  0  0  0  0  0  0
   15.9500  -15.3560   -2.7980 O   0  0  0  0  0  0  0  0  0  0  0  0
   15.3350  -14.8670   -2.1950 H   0  0  0  0  0  0  0  0  0  0  0  0
   23.9260  -13.6050   -0.6150 O   0  0  0  0  0  0  0  0  0  0  0  0
   24.4680  -14.1150   -1.2170 H   0  0  0  0  0  0  0  0  0  0  0  0
   22.5490  -10.3070   -0.7980 C   0  0  0  0  0  0  0  0  0  0  0  0
   21.6490   -9.4810   -0.1220 O   0  0  0  0  0  0  0  0  0  0  0  0
   20.6650   -8.5640   -1.0530 P   0  0  0  0  0  0  0  0  0  0  0  0
   21.0560   -7.1170   -0.5620 O   0  0  0  0  0  0  0  0  0  0  0  0
   21.1070   -8.8980   -2.4520 O   0  0  0  0  0  0  0  0  0  0  0  0
   19.2800   -8.9780   -0.6300 O   0  0  0  0  0  0  0  0  0  0  0  0
  1 15  1  1  0  0  0
  1  2  1  0  0  0  0
  2 17  1  6  0  0  0
  3  2  1  0  0  0  0
  4  6  1  6  0  0  0
  4  3  1  0  0  0  0
  5  1  1  0  0  0  0
  5  4  1  0  0  0  0
  6 12  2  0  0  0  0
  7  6  1  0  0  0  0
  8  7  2  0  0  0  0
  8 10  1  0  0  0  0
  9  8  1  0  0  0  0
 10 11  2  0  0  0  0
 11 12  1  0  0  0  0
 13 10  1  0  0  0  0
 13 14  1  0  0  0  0
 16 15  1  0  0  0  0
 17 18  1  0  0  0  0
 19 22  1  0  0  0  0
 19 20  1  0  0  0  0
 19 18  1  0  0  0  0
 21 19  2  0  0  0  0
M  END
>  <minimizedAffinity>
-6.44158506

$$$$

 OpenBabel12271915483D

 22 23  0  0  1  0  0  0  0  0999 V2000
   24.3940  -12.8870   -1.3530 C   0  0  2  0  0  0  0  0  0  0  0  0
   23.7820  -11.5150   -0.9310 C   0  0  2  0  0  0  0  0  0  0  0  0
   22.3280  -11.6800   -1.1190 O   0  0  0  0  0  0  0  0  0  0  0  0
   22.1430  -13.0690   -0.8120 C   0  0  2  0  0  0  0  0  0  0  0  0
   23.2080  -13.7720   -1.6370 C   0  0  0  0  0  0  0  0  0  0  0  0
   20.7240  -13.4810   -1.0940 C   0  0  0  0  0  0  0  0  0  0  0  0
   20.3890  -14.5820   -1.8910 C   0  0  0  0  0  0  0  0  0  0  0  0
   19.0760  -14.9390   -2.0890 C   0  0  0  0  0  0  0  0  0  0  0  0
   18.7040  -16.1060   -2.9470 C   0  0  0  0  0  0  0  0  0  0  0  0
   18.1130  -14.1390   -1.4740 C   0  0  0  0  0  0  0  0  0  0  0  0
   18.3400  -13.0810   -0.6870 N   0  0  0  0  0  0  0  0  0  0  0  0
   19.6610  -12.7780   -0.5360 C   0  0  0  0  0  0  0  0  0  0  0  0
   16.8070  -14.4540   -1.6450 O   0  0  0  0  0  0  0  0  0  0  0  0
   16.3350  -13.8930   -0.9790 H   0  0  0  0  0  0  0  0  0  0  0  0
   25.0770  -13.5130   -0.2320 O   0  0  0  0  0  0  0  0  0  0  0  0
   25.4790  -14.3100   -0.5790 H   0  0  0  0  0  0  0  0  0  0  0  0
   24.3310  -10.3390   -1.7070 C   0  0  0  0  0  0  0  0  0  0  0  0
   25.2370  -10.7410   -2.6910 O   0  0  0  0  0  0  0  0  0  0  0  0
   24.8830  -10.3040   -4.2270 P   0  0  0  0  0  0  0  0  0  0  0  0
   23.3100  -10.4120   -4.2100 O   0  0  0  0  0  0  0  0  0  0  0  0
   25.4190   -8.9010   -4.3170 O   0  0  0  0  0  0  0  0  0  0  0  0
   25.5400  -11.3690   -5.0650 O   0  0  0  0  0  0  0  0  0  0  0  0
  1  2  1  0  0  0  0
  1 15  1  1  0  0  0
  2 17  1  6  0  0  0
  3  2  1  0  0  0  0
  3  4  1  0  0  0  0
  4  6  1  6  0  0  0
  5  1  1  0  0  0  0
  5  4  1  0  0  0  0
  6 12  2  0  0  0  0
  7  6  1  0  0  0  0
  8  7  2  0  0  0  0
  8 10  1  0  0  0  0
  9  8  1  0  0  0  0
 10 11  2  0  0  0  0
 11 12  1  0  0  0  0
 13 10  1  0  0  0  0
 13 14  1  0  0  0  0
 16 15  1  0  0  0  0
 18 17  1  0  0  0  0
 19 20  1  0  0  0  0
 19 18  1  0  0  0  0
 21 19  1  0  0  0  0
 22 19  2  0  0  0  0
M  END
>  <minimizedAffinity>
-6.19511032

$$$$

 OpenBabel12271915483D

 22 23  0  0  1  0  0  0  0  0999 V2000
   20.8780  -14.1870   -0.7130 C   0  0  2  0  0  0  0  0  0  0  0  0
   20.2430  -13.0050   -1.5080 C   0  0  2  0  0  0  0  0  0  0  0  0
   21.1890  -11.8870   -1.3380 O   0  0  0  0  0  0  0  0  0  0  0  0
   22.4490  -12.5700   -1.2690 C   0  0  2  0  0  0  0  0  0  0  0  0
   22.2150  -13.6700   -0.2470 C   0  0  0  0  0  0  0  0  0  0  0  0
   23.5520  -11.6000   -0.9420 C   0  0  0  0  0  0  0  0  0  0  0  0
   24.8280  -12.0010   -0.5300 C   0  0  0  0  0  0  0  0  0  0  0  0
   25.8130  -11.0760   -0.2770 C   0  0  0  0  0  0  0  0  0  0  0  0
   27.1770  -11.4900    0.1740 C   0  0  0  0  0  0  0  0  0  0  0  0
   25.4630   -9.7350   -0.4330 C   0  0  0  0  0  0  0  0  0  0  0  0
   24.2780   -9.2620   -0.8350 N   0  0  0  0  0  0  0  0  0  0  0  0
   23.3450  -10.2300   -1.0640 C   0  0  0  0  0  0  0  0  0  0  0  0
   26.4030   -8.7900   -0.1910 O   0  0  0  0  0  0  0  0  0  0  0  0
   26.0040   -7.9570   -0.5490 H   0  0  0  0  0  0  0  0  0  0  0  0
   21.1870  -15.2980   -1.5980 O   0  0  0  0  0  0  0  0  0  0  0  0
   21.5100  -16.0030   -1.0370 H   0  0  0  0  0  0  0  0  0  0  0  0
   18.8450  -12.6480   -1.0540 C   0  0  0  0  0  0  0  0  0  0  0  0
   18.0520  -13.7820   -0.8670 O   0  0  0  0  0  0  0  0  0  0  0  0
   17.3270  -14.3900   -2.2020 P   0  0  0  0  0  0  0  0  0  0  0  0
   15.9010  -14.7410   -1.6310 O   0  0  0  0  0  0  0  0  0  0  0  0
   17.3560  -13.2340   -3.1640 O   0  0  0  0  0  0  0  0  0  0  0  0
   18.1480  -15.6080   -2.5340 O   0  0  0  0  0  0  0  0  0  0  0  0
  1 15  1  6  0  0  0
  1  5  1  0  0  0  0
  2  3  1  0  0  0  0
  2 17  1  1  0  0  0
  2  1  1  0  0  0  0
  3  4  1  0  0  0  0
  4  6  1  1  0  0  0
  4  5  1  0  0  0  0
  6  7  1  0  0  0  0
  7  8  2  0  0  0  0
  8  9  1  0  0  0  0
 10  8  1  0  0  0  0
 10 13  1  0  0  0  0
 11 10  2  0  0  0  0
 12  6  2  0  0  0  0
 12 11  1  0  0  0  0
 14 13  1  0  0  0  0
 15 16  1  0  0  0  0
 17 18  1  0  0  0  0
 19 20  1  0  0  0  0
 19 18  1  0  0  0  0
 21 19  2  0  0  0  0
 22 19  1  0  0  0  0
M  END
>  <minimizedAffinity>
-6.11909962

$$$$

 OpenBabel12271915483D

 22 23  0  0  1  0  0  0  0  0999 V2000
   25.3760  -12.3430   -0.8400 C   0  0  2  0  0  0  0  0  0  0  0  0
   24.4360  -11.4600    0.0360 C   0  0  2  0  0  0  0  0  0  0  0  0
   23.0760  -11.9480   -0.2640 O   0  0  0  0  0  0  0  0  0  0  0  0
   23.3070  -13.3430   -0.5080 C   0  0  2  0  0  0  0  0  0  0  0  0
   24.4680  -13.3570   -1.4880 C   0  0  0  0  0  0  0  0  0  0  0  0
   22.0430  -14.0050   -0.9860 C   0  0  0  0  0  0  0  0  0  0  0  0
   20.7710  -13.6520   -0.5220 C   0  0  0  0  0  0  0  0  0  0  0  0
   19.6430  -14.2640   -1.0170 C   0  0  0  0  0  0  0  0  0  0  0  0
   18.2780  -13.9050   -0.5230 C   0  0  0  0  0  0  0  0  0  0  0  0
   19.8420  -15.2540   -1.9790 C   0  0  0  0  0  0  0  0  0  0  0  0
   21.0150  -15.6440   -2.4910 N   0  0  0  0  0  0  0  0  0  0  0  0
   22.0930  -15.0040   -1.9530 C   0  0  0  0  0  0  0  0  0  0  0  0
   18.7580  -15.8830   -2.4920 O   0  0  0  0  0  0  0  0  0  0  0  0
   19.1150  -16.3810   -3.2710 H   0  0  0  0  0  0  0  0  0  0  0  0
   26.2800  -13.1190   -0.0070 O   0  0  0  0  0  0  0  0  0  0  0  0
   26.8640  -13.5810   -0.6090 H   0  0  0  0  0  0  0  0  0  0  0  0
   24.5820   -9.9770   -0.2180 C   0  0  0  0  0  0  0  0  0  0  0  0
   25.0500   -9.7120   -1.5060 O   0  0  0  0  0  0  0  0  0  0  0  0
   23.9460   -9.1690   -2.5840 P   0  0  0  0  0  0  0  0  0  0  0  0
   24.7430   -7.9860   -3.2540 O   0  0  0  0  0  0  0  0  0  0  0  0
   23.7190  -10.3630   -3.4720 O   0  0  0  0  0  0  0  0  0  0  0  0
   22.8030   -8.7000   -1.7240 O   0  0  0  0  0  0  0  0  0  0  0  0
  1 15  1  1  0  0  0
  1  2  1  0  0  0  0
  2 17  1  6  0  0  0
  3  2  1  0  0  0  0
  4  6  1  6  0  0  0
  4  3  1  0  0  0  0
  5  1  1  0  0  0  0
  5  4  1  0  0  0  0
  6  7  1  0  0  0  0
  8  9  1  0  0  0  0
  8  7  2  0  0  0  0
 10  8  1  0  0  0  0
 11 10  2  0  0  0  0
 11 12  1  0  0  0  0
 12  6  2  0  0  0  0
 13 10  1  0  0  0  0
 14 13  1  0  0  0  0
 16 15  1  0  0  0  0
 18 17  1  0  0  0  0
 19 22  1  0  0  0  0
 19 18  1  0  0  0  0
 20 19  1  0  0  0  0
 21 19  2  0  0  0  0
M  END
>  <minimizedAffinity>
-5.97230673

$$$$
