
 OpenBabel12271915513D

 25 29  0  0  1  0  0  0  0  0999 V2000
   22.1960  -14.8870   -1.5360 C   0  0  1  0  0  0  0  0  0  0  0  0
   21.3170  -13.9380   -2.3890 C   0  0  1  0  0  0  0  0  0  0  0  0
   19.8930  -14.4040   -2.4370 C   0  0  0  0  0  0  0  0  0  0  0  0
   19.7010  -15.4770   -3.3310 C   0  0  0  0  0  0  0  0  0  0  0  0
   18.4520  -16.0260   -3.5050 C   0  0  0  0  0  0  0  0  0  0  0  0
   18.0980  -17.0470   -4.3430 O   0  0  0  0  0  0  0  0  0  0  0  0
   16.6500  -16.9740   -4.3370 C   0  0  0  0  0  0  0  0  0  0  0  0
   16.2390  -16.2610   -3.1480 O   0  0  0  0  0  0  0  0  0  0  0  0
   17.3660  -15.5830   -2.8150 C   0  0  0  0  0  0  0  0  0  0  0  0
   17.5080  -14.5580   -1.9170 C   0  0  0  0  0  0  0  0  0  0  0  0
   18.7640  -13.9460   -1.7250 C   0  0  0  0  0  0  0  0  0  0  0  0
   18.7300  -12.8340   -0.7240 C   0  0  0  0  0  0  0  0  0  0  0  0
   19.4830  -11.6550   -1.2640 C   0  0  0  0  0  0  0  0  0  0  0  0
   20.9330  -11.8260   -0.9540 N   0  0  2  0  0  0  0  0  0  0  0  0
   21.0350  -12.3080   -0.0480 H   0  0  0  0  0  0  0  0  0  0  0  0
   21.5870  -10.4870   -0.9020 C   0  0  0  0  0  0  0  0  0  0  0  0
   21.8620  -10.1680   -2.3720 C   0  0  0  0  0  0  0  0  0  0  0  0
   21.7990  -11.5090   -3.1130 C   0  0  0  0  0  0  0  0  0  0  0  0
   21.7390  -12.5290   -1.9900 C   0  0  2  0  0  0  0  0  0  0  0  0
   23.1220  -12.7590   -1.4810 C   0  0  0  0  0  0  0  0  0  0  0  0
   23.3640  -14.0310   -1.2300 C   0  0  1  0  0  0  0  0  0  0  0  0
   21.5470  -15.2570   -0.3320 O   0  0  0  0  0  0  0  0  0  0  0  0
   21.4990  -16.2360   -0.3250 H   0  0  0  0  0  0  0  0  0  0  0  0
   24.5760  -14.4570   -0.7360 O   0  0  0  0  0  0  0  0  0  0  0  0
   25.5290  -13.4870   -0.3170 C   0  0  0  0  0  0  0  0  0  0  0  0
  1 21  1  0  0  0  0
  1 22  1  1  0  0  0
  2 19  1  1  0  0  0
  2  1  1  0  0  0  0
  3  2  1  0  0  0  0
  3 11  2  0  0  0  0
  4  3  1  0  0  0  0
  5  4  2  0  0  0  0
  5  9  1  0  0  0  0
  6  7  1  0  0  0  0
  6  5  1  0  0  0  0
  7  8  1  0  0  0  0
  8  9  1  0  0  0  0
  9 10  2  0  0  0  0
 10 11  1  0  0  0  0
 11 12  1  0  0  0  0
 13 14  1  0  0  0  0
 13 12  1  0  0  0  0
 14 19  1  6  0  0  0
 14 16  1  0  0  0  0
 14 15  1  0  0  0  0
 17 16  1  0  0  0  0
 18 17  1  0  0  0  0
 19 18  1  6  0  0  0
 19 20  1  0  0  0  0
 20 21  1  0  0  0  0
 21 24  1  1  0  0  0
 22 23  1  0  0  0  0
 24 25  1  0  0  0  0
M  END
>  <minimizedAffinity>
-8.78532887

$$$$

 OpenBabel12271915513D

 25 29  0  0  1  0  0  0  0  0999 V2000
   16.9750  -14.6230   -3.0840 C   0  0  1  0  0  0  0  0  0  0  0  0
   18.2410  -13.7320   -3.0140 C   0  0  1  0  0  0  0  0  0  0  0  0
   17.9930  -12.4900   -2.2140 C   0  0  0  0  0  0  0  0  0  0  0  0
   17.2770  -11.5120   -2.9330 C   0  0  0  0  0  0  0  0  0  0  0  0
   16.9680  -10.3050   -2.3520 C   0  0  0  0  0  0  0  0  0  0  0  0
   16.3020   -9.2510   -2.9170 O   0  0  0  0  0  0  0  0  0  0  0  0
   16.5510   -8.1780   -1.9760 C   0  0  0  0  0  0  0  0  0  0  0  0
   16.9130   -8.7660   -0.7050 O   0  0  0  0  0  0  0  0  0  0  0  0
   17.3110  -10.0110   -1.0680 C   0  0  0  0  0  0  0  0  0  0  0  0
   17.9880  -10.9400   -0.3210 C   0  0  0  0  0  0  0  0  0  0  0  0
   18.3510  -12.1810   -0.8820 C   0  0  0  0  0  0  0  0  0  0  0  0
   19.1000  -13.0610    0.0680 C   0  0  0  0  0  0  0  0  0  0  0  0
   20.2830  -13.6570   -0.6340 C   0  0  0  0  0  0  0  0  0  0  0  0
   19.8460  -14.8890   -1.3550 N   0  0  2  0  0  0  0  0  0  0  0  0
   19.1030  -15.3560   -0.8150 H   0  0  0  0  0  0  0  0  0  0  0  0
   21.0140  -15.8020   -1.5220 C   0  0  0  0  0  0  0  0  0  0  0  0
   21.7270  -15.2440   -2.7540 C   0  0  0  0  0  0  0  0  0  0  0  0
   20.6950  -14.3760   -3.4830 C   0  0  0  0  0  0  0  0  0  0  0  0
   19.3970  -14.6920   -2.7600 C   0  0  2  0  0  0  0  0  0  0  0  0
   18.8530  -15.9730   -3.2990 C   0  0  0  0  0  0  0  0  0  0  0  0
   17.5450  -15.9360   -3.4650 C   0  0  1  0  0  0  0  0  0  0  0  0
   16.3400  -14.7280   -1.8220 O   0  0  0  0  0  0  0  0  0  0  0  0
   15.4200  -14.4120   -1.9410 H   0  0  0  0  0  0  0  0  0  0  0  0
   16.8410  -17.0200   -3.9360 O   0  0  0  0  0  0  0  0  0  0  0  0
   17.5160  -17.9890   -4.7300 C   0  0  0  0  0  0  0  0  0  0  0  0
  1  2  1  0  0  0  0
  1 22  1  1  0  0  0
  2 19  1  1  0  0  0
  2  3  1  0  0  0  0
  3 11  2  0  0  0  0
  4  5  2  0  0  0  0
  4  3  1  0  0  0  0
  5  9  1  0  0  0  0
  6  5  1  0  0  0  0
  6  7  1  0  0  0  0
  7  8  1  0  0  0  0
  9  8  1  0  0  0  0
  9 10  2  0  0  0  0
 11 10  1  0  0  0  0
 11 12  1  0  0  0  0
 13 12  1  0  0  0  0
 14 19  1  6  0  0  0
 14 15  1  0  0  0  0
 14 13  1  0  0  0  0
 16 14  1  0  0  0  0
 17 16  1  0  0  0  0
 18 17  1  0  0  0  0
 19 18  1  6  0  0  0
 20 19  1  0  0  0  0
 21 24  1  1  0  0  0
 21 20  1  0  0  0  0
 21  1  1  0  0  0  0
 23 22  1  0  0  0  0
 25 24  1  0  0  0  0
M  END
>  <minimizedAffinity>
-7.28436041

$$$$

 OpenBabel12271915513D

 25 29  0  0  1  0  0  0  0  0999 V2000
   22.9220  -10.6400   -3.3800 C   0  0  1  0  0  0  0  0  0  0  0  0
   23.7660  -11.7940   -2.7850 C   0  0  1  0  0  0  0  0  0  0  0  0
   25.0210  -11.2820   -2.1430 C   0  0  0  0  0  0  0  0  0  0  0  0
   26.0210  -10.9600   -3.0830 C   0  0  0  0  0  0  0  0  0  0  0  0
   27.2410  -10.4810   -2.6670 C   0  0  0  0  0  0  0  0  0  0  0  0
   28.3160  -10.1460   -3.4450 O   0  0  0  0  0  0  0  0  0  0  0  0
   29.3830  -10.0210   -2.4730 C   0  0  0  0  0  0  0  0  0  0  0  0
   28.7870   -9.8050   -1.1730 O   0  0  0  0  0  0  0  0  0  0  0  0
   27.5270  -10.2740   -1.3530 C   0  0  0  0  0  0  0  0  0  0  0  0
   26.5770  -10.5500   -0.4040 C   0  0  0  0  0  0  0  0  0  0  0  0
   25.3210  -11.0680   -0.7800 C   0  0  0  0  0  0  0  0  0  0  0  0
   24.4190  -11.3270    0.3840 C   0  0  0  0  0  0  0  0  0  0  0  0
   23.7770  -12.6730    0.2270 C   0  0  0  0  0  0  0  0  0  0  0  0
   22.5580  -12.5290   -0.6240 N   0  0  2  0  0  0  0  0  0  0  0  0
   22.1210  -11.6140   -0.4440 H   0  0  0  0  0  0  0  0  0  0  0  0
   21.6030  -13.6290   -0.3050 C   0  0  0  0  0  0  0  0  0  0  0  0
   22.1290  -14.8070   -1.1260 C   0  0  0  0  0  0  0  0  0  0  0  0
   23.0310  -14.1980   -2.2060 C   0  0  0  0  0  0  0  0  0  0  0  0
   22.7660  -12.7080   -2.0870 C   0  0  2  0  0  0  0  0  0  0  0  0
   21.5040  -12.3900   -2.8170 C   0  0  0  0  0  0  0  0  0  0  0  0
   21.5880  -11.2690   -3.5080 C   0  0  1  0  0  0  0  0  0  0  0  0
   22.8460   -9.5370   -2.4940 O   0  0  0  0  0  0  0  0  0  0  0  0
   23.1940   -8.7590   -2.9790 H   0  0  0  0  0  0  0  0  0  0  0  0
   20.5280  -10.7850   -4.2390 O   0  0  0  0  0  0  0  0  0  0  0  0
   20.7890   -9.9310   -5.3480 C   0  0  0  0  0  0  0  0  0  0  0  0
  1  2  1  0  0  0  0
  1 22  1  1  0  0  0
  2  3  1  0  0  0  0
  2 19  1  1  0  0  0
  3 11  2  0  0  0  0
  4  5  2  0  0  0  0
  4  3  1  0  0  0  0
  5  9  1  0  0  0  0
  6  5  1  0  0  0  0
  6  7  1  0  0  0  0
  7  8  1  0  0  0  0
  9  8  1  0  0  0  0
  9 10  2  0  0  0  0
 11 10  1  0  0  0  0
 11 12  1  0  0  0  0
 13 12  1  0  0  0  0
 14 19  1  6  0  0  0
 14 15  1  0  0  0  0
 14 16  1  0  0  0  0
 14 13  1  0  0  0  0
 17 16  1  0  0  0  0
 18 19  1  0  0  0  0
 18 17  1  0  0  0  0
 19 20  1  6  0  0  0
 21 24  1  1  0  0  0
 21  1  1  0  0  0  0
 21 20  1  0  0  0  0
 23 22  1  0  0  0  0
 25 24  1  0  0  0  0
M  END
>  <minimizedAffinity>
-7.19714212

$$$$

 OpenBabel12271915513D

 25 29  0  0  1  0  0  0  0  0999 V2000
   20.0540  -10.9270   -2.4000 C   0  0  1  0  0  0  0  0  0  0  0  0
   20.8710  -12.2100   -2.6910 C   0  0  1  0  0  0  0  0  0  0  0  0
   22.1440  -12.2410   -1.9010 C   0  0  0  0  0  0  0  0  0  0  0  0
   23.1460  -11.4120   -2.4460 C   0  0  0  0  0  0  0  0  0  0  0  0
   24.3810  -11.3260   -1.8500 C   0  0  0  0  0  0  0  0  0  0  0  0
   25.4590  -10.5900   -2.2640 O   0  0  0  0  0  0  0  0  0  0  0  0
   26.5370  -11.1280   -1.4580 C   0  0  0  0  0  0  0  0  0  0  0  0
   25.9580  -11.7770   -0.3030 O   0  0  0  0  0  0  0  0  0  0  0  0
   24.6830  -12.0040   -0.7100 C   0  0  0  0  0  0  0  0  0  0  0  0
   23.7340  -12.8040   -0.1290 C   0  0  0  0  0  0  0  0  0  0  0  0
   22.4620  -12.9460   -0.7190 C   0  0  0  0  0  0  0  0  0  0  0  0
   21.5620  -13.8710    0.0380 C   0  0  0  0  0  0  0  0  0  0  0  0
   20.8820  -14.8010   -0.9220 C   0  0  0  0  0  0  0  0  0  0  0  0
   19.6610  -14.1300   -1.4600 N   0  0  2  0  0  0  0  0  0  0  0  0
   19.2500  -13.5300   -0.7300 H   0  0  0  0  0  0  0  0  0  0  0  0
   18.6790  -15.1670   -1.8890 C   0  0  0  0  0  0  0  0  0  0  0  0
   19.1660  -15.5640   -3.2830 C   0  0  0  0  0  0  0  0  0  0  0  0
   20.0750  -14.4230   -3.7520 C   0  0  0  0  0  0  0  0  0  0  0  0
   19.8520  -13.3430   -2.7090 C   0  0  2  0  0  0  0  0  0  0  0  0
   18.5930  -12.6140   -3.0410 C   0  0  0  0  0  0  0  0  0  0  0  0
   18.7020  -11.3110   -2.8660 C   0  0  1  0  0  0  0  0  0  0  0  0
   20.0150  -10.6360   -1.0140 O   0  0  0  0  0  0  0  0  0  0  0  0
   20.3810   -9.7330   -0.9030 H   0  0  0  0  0  0  0  0  0  0  0  0
   17.6500  -10.4550   -3.0990 O   0  0  0  0  0  0  0  0  0  0  0  0
   17.9180   -9.1630   -3.6320 C   0  0  0  0  0  0  0  0  0  0  0  0
  1 22  1  1  0  0  0
  2 19  1  1  0  0  0
  2  1  1  0  0  0  0
  2  3  1  0  0  0  0
  3 11  1  0  0  0  0
  4  3  2  0  0  0  0
  4  5  1  0  0  0  0
  5  9  2  0  0  0  0
  6  5  1  0  0  0  0
  6  7  1  0  0  0  0
  7  8  1  0  0  0  0
  9  8  1  0  0  0  0
  9 10  1  0  0  0  0
 11 10  2  0  0  0  0
 11 12  1  0  0  0  0
 13 12  1  0  0  0  0
 14 19  1  6  0  0  0
 14 13  1  0  0  0  0
 14 15  1  0  0  0  0
 16 14  1  0  0  0  0
 17 16  1  0  0  0  0
 18 17  1  0  0  0  0
 19 18  1  6  0  0  0
 20 21  1  0  0  0  0
 20 19  1  0  0  0  0
 21 24  1  1  0  0  0
 21  1  1  0  0  0  0
 22 23  1  0  0  0  0
 25 24  1  0  0  0  0
M  END
>  <minimizedAffinity>
-7.17811441

$$$$

 OpenBabel12271915513D

 25 29  0  0  1  0  0  0  0  0999 V2000
   23.2130  -13.3950   -0.3270 C   0  0  1  0  0  0  0  0  0  0  0  0
   23.2360  -11.8700   -0.5960 C   0  0  1  0  0  0  0  0  0  0  0  0
   24.5760  -11.4210   -1.0970 C   0  0  0  0  0  0  0  0  0  0  0  0
   25.5340  -11.3110   -0.0690 C   0  0  0  0  0  0  0  0  0  0  0  0
   26.8160  -10.9050   -0.3500 C   0  0  0  0  0  0  0  0  0  0  0  0
   27.8490  -10.7280    0.5300 O   0  0  0  0  0  0  0  0  0  0  0  0
   28.8230  -10.0070   -0.2650 C   0  0  0  0  0  0  0  0  0  0  0  0
   28.5230  -10.2330   -1.6620 O   0  0  0  0  0  0  0  0  0  0  0  0
   27.2230  -10.6190   -1.6170 C   0  0  0  0  0  0  0  0  0  0  0  0
   26.3330  -10.7350   -2.6540 C   0  0  0  0  0  0  0  0  0  0  0  0
   25.0000  -11.1220   -2.4110 C   0  0  0  0  0  0  0  0  0  0  0  0
   24.1670  -11.1770   -3.6520 C   0  0  0  0  0  0  0  0  0  0  0  0
   22.8480  -10.5100   -3.3970 C   0  0  0  0  0  0  0  0  0  0  0  0
   21.9160  -11.5040   -2.7850 N   0  0  2  0  0  0  0  0  0  0  0  0
   22.1120  -12.4390   -3.1710 H   0  0  0  0  0  0  0  0  0  0  0  0
   20.5100  -11.1070   -3.0820 C   0  0  0  0  0  0  0  0  0  0  0  0
   20.2050  -10.0530   -2.0170 C   0  0  0  0  0  0  0  0  0  0  0  0
   21.2470  -10.2570   -0.9120 C   0  0  0  0  0  0  0  0  0  0  0  0
   21.9180  -11.5630   -1.2980 C   0  0  2  0  0  0  0  0  0  0  0  0
   21.0600  -12.6930   -0.8380 C   0  0  0  0  0  0  0  0  0  0  0  0
   21.7610  -13.6840   -0.3220 C   0  0  1  0  0  0  0  0  0  0  0  0
   23.8390  -14.1190   -1.3720 O   0  0  0  0  0  0  0  0  0  0  0  0
   24.5590  -14.6430   -0.9620 H   0  0  0  0  0  0  0  0  0  0  0  0
   21.1630  -14.8310    0.1470 O   0  0  0  0  0  0  0  0  0  0  0  0
   20.4140  -14.7740    1.3560 C   0  0  0  0  0  0  0  0  0  0  0  0
  1 22  1  6  0  0  0
  1 21  1  0  0  0  0
  2 19  1  6  0  0  0
  2  1  1  0  0  0  0
  3  2  1  0  0  0  0
  3  4  2  0  0  0  0
  5  4  1  0  0  0  0
  5  6  1  0  0  0  0
  7  6  1  0  0  0  0
  8  9  1  0  0  0  0
  8  7  1  0  0  0  0
  9  5  2  0  0  0  0
 10 11  2  0  0  0  0
 10  9  1  0  0  0  0
 11  3  1  0  0  0  0
 12 13  1  0  0  0  0
 12 11  1  0  0  0  0
 13 14  1  0  0  0  0
 14 19  1  1  0  0  0
 15 14  1  0  0  0  0
 16 14  1  0  0  0  0
 16 17  1  0  0  0  0
 17 18  1  0  0  0  0
 19 18  1  1  0  0  0
 19 20  1  0  0  0  0
 20 21  1  0  0  0  0
 21 24  1  6  0  0  0
 22 23  1  0  0  0  0
 24 25  1  0  0  0  0
M  END
>  <minimizedAffinity>
-7.14093065

$$$$

 OpenBabel12271915513D

 25 29  0  0  1  0  0  0  0  0999 V2000
   20.2660  -14.9100   -2.2660 C   0  0  1  0  0  0  0  0  0  0  0  0
   20.4030  -13.5640   -1.5110 C   0  0  1  0  0  0  0  0  0  0  0  0
   21.7860  -13.0010   -1.6390 C   0  0  0  0  0  0  0  0  0  0  0  0
   22.7140  -13.6360   -0.7890 C   0  0  0  0  0  0  0  0  0  0  0  0
   24.0300  -13.2400   -0.7730 C   0  0  0  0  0  0  0  0  0  0  0  0
   25.0420  -13.7350    0.0040 O   0  0  0  0  0  0  0  0  0  0  0  0
   26.0890  -12.7490   -0.1730 C   0  0  0  0  0  0  0  0  0  0  0  0
   25.8210  -12.0200   -1.3940 O   0  0  0  0  0  0  0  0  0  0  0  0
   24.4970  -12.2500   -1.5810 C   0  0  0  0  0  0  0  0  0  0  0  0
   23.6370  -11.6190   -2.4420 C   0  0  0  0  0  0  0  0  0  0  0  0
   22.2730  -11.9720   -2.4750 C   0  0  0  0  0  0  0  0  0  0  0  0
   21.4810  -11.1700   -3.4570 C   0  0  0  0  0  0  0  0  0  0  0  0
   20.2030  -10.7180   -2.8160 C   0  0  0  0  0  0  0  0  0  0  0  0
   19.1850  -11.8020   -2.9540 N   0  0  2  0  0  0  0  0  0  0  0  0
   19.3290  -12.2960   -3.8470 H   0  0  0  0  0  0  0  0  0  0  0  0
   17.8200  -11.2040   -2.9090 C   0  0  0  0  0  0  0  0  0  0  0  0
   17.5520  -11.0400   -1.4120 C   0  0  0  0  0  0  0  0  0  0  0  0
   18.5400  -11.9730   -0.7030 C   0  0  0  0  0  0  0  0  0  0  0  0
   19.1330  -12.7870   -1.8390 C   0  0  2  0  0  0  0  0  0  0  0  0
   18.1840  -13.8860   -2.1820 C   0  0  0  0  0  0  0  0  0  0  0  0
   18.7990  -15.0290   -2.4200 C   0  0  1  0  0  0  0  0  0  0  0  0
   20.8760  -14.8560   -3.5440 O   0  0  0  0  0  0  0  0  0  0  0  0
   21.5450  -15.5730   -3.5690 H   0  0  0  0  0  0  0  0  0  0  0  0
   18.1080  -16.1660   -2.7710 O   0  0  0  0  0  0  0  0  0  0  0  0
   16.9210  -16.0400   -3.5460 C   0  0  0  0  0  0  0  0  0  0  0  0
  1 22  1  6  0  0  0
  1  2  1  0  0  0  0
  2 19  1  6  0  0  0
  3  2  1  0  0  0  0
  3  4  2  0  0  0  0
  4  5  1  0  0  0  0
  5  6  1  0  0  0  0
  7  6  1  0  0  0  0
  8  7  1  0  0  0  0
  9  8  1  0  0  0  0
  9  5  2  0  0  0  0
 10  9  1  0  0  0  0
 11 10  2  0  0  0  0
 11  3  1  0  0  0  0
 12 13  1  0  0  0  0
 12 11  1  0  0  0  0
 14 16  1  0  0  0  0
 14 13  1  0  0  0  0
 14 19  1  1  0  0  0
 15 14  1  0  0  0  0
 16 17  1  0  0  0  0
 17 18  1  0  0  0  0
 19 20  1  6  0  0  0
 19 18  1  0  0  0  0
 21 24  1  6  0  0  0
 21  1  1  0  0  0  0
 21 20  1  0  0  0  0
 23 22  1  0  0  0  0
 25 24  1  0  0  0  0
M  END
>  <minimizedAffinity>
-7.01111698

$$$$

 OpenBabel12271915513D

 25 29  0  0  1  0  0  0  0  0999 V2000
   20.1070  -10.7680   -1.5970 C   0  0  1  0  0  0  0  0  0  0  0  0
   21.1010  -11.7500   -2.2660 C   0  0  1  0  0  0  0  0  0  0  0  0
   22.4580  -11.1340   -2.4260 C   0  0  0  0  0  0  0  0  0  0  0  0
   22.5260  -10.2380   -3.5120 C   0  0  0  0  0  0  0  0  0  0  0  0
   23.7000   -9.5870   -3.8070 C   0  0  0  0  0  0  0  0  0  0  0  0
   23.9350   -8.7100   -4.8310 O   0  0  0  0  0  0  0  0  0  0  0  0
   25.3800   -8.6060   -4.8340 C   0  0  0  0  0  0  0  0  0  0  0  0
   25.8660   -9.0220   -3.5370 O   0  0  0  0  0  0  0  0  0  0  0  0
   24.8270   -9.7540   -3.0630 C   0  0  0  0  0  0  0  0  0  0  0  0
   24.8030  -10.5980   -1.9820 C   0  0  0  0  0  0  0  0  0  0  0  0
   23.6300  -11.3080   -1.6570 C   0  0  0  0  0  0  0  0  0  0  0  0
   23.7900  -12.1940   -0.4620 C   0  0  0  0  0  0  0  0  0  0  0  0
   23.1900  -13.5370   -0.7540 C   0  0  0  0  0  0  0  0  0  0  0  0
   21.7270  -13.4850   -0.4590 N   0  0  2  0  0  0  0  0  0  0  0  0
   21.5610  -12.8540    0.3390 H   0  0  0  0  0  0  0  0  0  0  0  0
   21.2400  -14.8590   -0.1420 C   0  0  0  0  0  0  0  0  0  0  0  0
   21.0160  -15.4840   -1.5190 C   0  0  0  0  0  0  0  0  0  0  0  0
   20.9220  -14.3130   -2.5030 C   0  0  0  0  0  0  0  0  0  0  0  0
   20.8500  -13.0960   -1.5980 C   0  0  2  0  0  0  0  0  0  0  0  0
   19.4450  -12.9420   -1.1210 C   0  0  0  0  0  0  0  0  0  0  0  0
   19.0490  -11.6830   -1.1140 C   0  0  1  0  0  0  0  0  0  0  0  0
   20.6970  -10.0980   -0.4970 O   0  0  0  0  0  0  0  0  0  0  0  0
   20.6260   -9.1370   -0.6790 H   0  0  0  0  0  0  0  0  0  0  0  0
   17.7910  -11.3190   -0.6920 O   0  0  0  0  0  0  0  0  0  0  0  0
   17.3820   -9.9630   -0.8330 C   0  0  0  0  0  0  0  0  0  0  0  0
  1 21  1  0  0  0  0
  1 22  1  1  0  0  0
  2 19  1  1  0  0  0
  2  1  1  0  0  0  0
  3  2  1  0  0  0  0
  3 11  2  0  0  0  0
  4  3  1  0  0  0  0
  5  4  2  0  0  0  0
  5  9  1  0  0  0  0
  6  5  1  0  0  0  0
  7  6  1  0  0  0  0
  7  8  1  0  0  0  0
  8  9  1  0  0  0  0
  9 10  2  0  0  0  0
 10 11  1  0  0  0  0
 11 12  1  0  0  0  0
 13 12  1  0  0  0  0
 13 14  1  0  0  0  0
 14 19  1  6  0  0  0
 14 16  1  0  0  0  0
 14 15  1  0  0  0  0
 17 16  1  0  0  0  0
 18 17  1  0  0  0  0
 19 18  1  6  0  0  0
 19 20  1  0  0  0  0
 20 21  1  0  0  0  0
 21 24  1  1  0  0  0
 23 22  1  0  0  0  0
 25 24  1  0  0  0  0
M  END
>  <minimizedAffinity>
-6.9509778

$$$$

 OpenBabel12271915513D

 25 29  0  0  1  0  0  0  0  0999 V2000
   24.4930  -12.4140   -0.7650 C   0  0  1  0  0  0  0  0  0  0  0  0
   23.9310  -12.3340   -2.2060 C   0  0  1  0  0  0  0  0  0  0  0  0
   22.4630  -12.6340   -2.2410 C   0  0  0  0  0  0  0  0  0  0  0  0
   22.1860  -14.0130   -2.1510 C   0  0  0  0  0  0  0  0  0  0  0  0
   20.8890  -14.4680   -2.1740 C   0  0  0  0  0  0  0  0  0  0  0  0
   20.4580  -15.7650   -2.1180 O   0  0  0  0  0  0  0  0  0  0  0  0
   19.0630  -15.6510   -2.4950 C   0  0  0  0  0  0  0  0  0  0  0  0
   18.6440  -14.2850   -2.2710 O   0  0  0  0  0  0  0  0  0  0  0  0
   19.8280  -13.6210   -2.2570 C   0  0  0  0  0  0  0  0  0  0  0  0
   20.0460  -12.2690   -2.3230 C   0  0  0  0  0  0  0  0  0  0  0  0
   21.3590  -11.7570   -2.3300 C   0  0  0  0  0  0  0  0  0  0  0  0
   21.4100  -10.2650   -2.4260 C   0  0  0  0  0  0  0  0  0  0  0  0
   22.4380   -9.8660   -3.4410 C   0  0  0  0  0  0  0  0  0  0  0  0
   23.7760   -9.8200   -2.7790 N   0  0  2  0  0  0  0  0  0  0  0  0
   23.6650   -9.5080   -1.8040 H   0  0  0  0  0  0  0  0  0  0  0  0
   24.6620   -8.8810   -3.5250 C   0  0  0  0  0  0  0  0  0  0  0  0
   25.1820   -9.7270   -4.6870 C   0  0  0  0  0  0  0  0  0  0  0  0
   24.9600  -11.1880   -4.2760 C   0  0  0  0  0  0  0  0  0  0  0  0
   24.5600  -11.0860   -2.8150 C   0  0  2  0  0  0  0  0  0  0  0  0
   25.7950  -10.9360   -1.9930 C   0  0  0  0  0  0  0  0  0  0  0  0
   25.7540  -11.6480   -0.8830 C   0  0  1  0  0  0  0  0  0  0  0  0
   23.6340  -11.7790    0.1660 O   0  0  0  0  0  0  0  0  0  0  0  0
   23.3990  -12.4530    0.8390 H   0  0  0  0  0  0  0  0  0  0  0  0
   26.7870  -11.6380    0.0260 O   0  0  0  0  0  0  0  0  0  0  0  0
   27.7130  -10.5570    0.0050 C   0  0  0  0  0  0  0  0  0  0  0  0
  1 22  1  1  0  0  0
  2 19  1  1  0  0  0
  2  1  1  0  0  0  0
  3  2  1  0  0  0  0
  3  4  2  0  0  0  0
  5  4  1  0  0  0  0
  5  6  1  0  0  0  0
  7  8  1  0  0  0  0
  7  6  1  0  0  0  0
  8  9  1  0  0  0  0
  9  5  2  0  0  0  0
 10  9  1  0  0  0  0
 11 10  2  0  0  0  0
 11  3  1  0  0  0  0
 12 11  1  0  0  0  0
 13 14  1  0  0  0  0
 13 12  1  0  0  0  0
 14 19  1  6  0  0  0
 14 15  1  0  0  0  0
 16 14  1  0  0  0  0
 17 18  1  0  0  0  0
 17 16  1  0  0  0  0
 19 18  1  6  0  0  0
 19 20  1  0  0  0  0
 20 21  1  0  0  0  0
 21  1  1  0  0  0  0
 21 24  1  1  0  0  0
 22 23  1  0  0  0  0
 25 24  1  0  0  0  0
M  END
>  <minimizedAffinity>
-6.91670895

$$$$

 OpenBabel12271915513D

 25 29  0  0  1  0  0  0  0  0999 V2000
   22.4520  -10.7630   -0.7310 C   0  0  1  0  0  0  0  0  0  0  0  0
   21.2580  -11.7500   -0.7010 C   0  0  1  0  0  0  0  0  0  0  0  0
   20.1030  -11.2390   -1.5080 C   0  0  0  0  0  0  0  0  0  0  0  0
   19.3680  -10.2420   -0.8350 C   0  0  0  0  0  0  0  0  0  0  0  0
   18.2690   -9.6660   -1.4280 C   0  0  0  0  0  0  0  0  0  0  0  0
   17.4430   -8.7090   -0.9040 O   0  0  0  0  0  0  0  0  0  0  0  0
   16.3170   -8.7290   -1.8160 C   0  0  0  0  0  0  0  0  0  0  0  0
   16.7550   -9.3190   -3.0620 O   0  0  0  0  0  0  0  0  0  0  0  0
   17.8610  -10.0060   -2.6800 C   0  0  0  0  0  0  0  0  0  0  0  0
   18.5590  -10.9540   -3.3830 C   0  0  0  0  0  0  0  0  0  0  0  0
   19.6760  -11.5920   -2.8070 C   0  0  0  0  0  0  0  0  0  0  0  0
   20.3020  -12.6100   -3.7070 C   0  0  0  0  0  0  0  0  0  0  0  0
   20.5850  -13.8580   -2.9260 C   0  0  0  0  0  0  0  0  0  0  0  0
   21.9080  -13.7140   -2.2480 N   0  0  2  0  0  0  0  0  0  0  0  0
   22.5390  -13.1590   -2.8440 H   0  0  0  0  0  0  0  0  0  0  0  0
   22.4860  -15.0660   -2.0030 C   0  0  0  0  0  0  0  0  0  0  0  0
   21.7930  -15.5220   -0.7180 C   0  0  0  0  0  0  0  0  0  0  0  0
   21.2480  -14.2490   -0.0600 C   0  0  0  0  0  0  0  0  0  0  0  0
   21.8740  -13.1340   -0.8780 C   0  0  2  0  0  0  0  0  0  0  0  0
   23.2660  -12.9110   -0.3900 C   0  0  0  0  0  0  0  0  0  0  0  0
   23.5790  -11.6320   -0.3200 C   0  0  1  0  0  0  0  0  0  0  0  0
   22.6860  -10.2660   -2.0370 O   0  0  0  0  0  0  0  0  0  0  0  0
   22.6270   -9.2890   -1.9830 H   0  0  0  0  0  0  0  0  0  0  0  0
   24.8220  -11.2080    0.0900 O   0  0  0  0  0  0  0  0  0  0  0  0
   25.9550  -11.5180   -0.7150 C   0  0  0  0  0  0  0  0  0  0  0  0
  1 22  1  6  0  0  0
  1  2  1  0  0  0  0
  1 21  1  0  0  0  0
  2 19  1  6  0  0  0
  3  4  2  0  0  0  0
  3  2  1  0  0  0  0
  5  6  1  0  0  0  0
  5  4  1  0  0  0  0
  7  6  1  0  0  0  0
  8  9  1  0  0  0  0
  8  7  1  0  0  0  0
  9  5  2  0  0  0  0
 10 11  2  0  0  0  0
 10  9  1  0  0  0  0
 11  3  1  0  0  0  0
 12 13  1  0  0  0  0
 12 11  1  0  0  0  0
 13 14  1  0  0  0  0
 14 16  1  0  0  0  0
 14 19  1  1  0  0  0
 15 14  1  0  0  0  0
 16 17  1  0  0  0  0
 17 18  1  0  0  0  0
 19 20  1  1  0  0  0
 19 18  1  0  0  0  0
 20 21  1  0  0  0  0
 21 24  1  6  0  0  0
 22 23  1  0  0  0  0
 25 24  1  0  0  0  0
M  END
>  <minimizedAffinity>
-6.76940155

$$$$
