
 OpenBabel12271915503D

 42 46  0  0  1  0  0  0  0  0999 V2000
   22.2570  -12.3390   -2.7090 C   0  0  1  0  0  0  0  0  0  0  0  0
   23.0560  -10.9760   -3.0720 C   0  0  1  0  0  0  0  0  0  0  0  0
   22.1290   -9.8070   -3.4860 C   0  0  0  0  0  0  0  0  0  0  0  0
   21.4920  -10.0680   -4.7270 C   0  0  0  0  0  0  0  0  0  0  0  0
   20.5660   -9.0970   -5.2120 C   0  0  0  0  0  0  0  0  0  0  0  0
   19.8900   -9.2770   -6.3960 O   0  0  0  0  0  0  0  0  0  0  0  0
   19.2620   -7.9460   -6.3790 C   0  0  0  0  0  0  0  0  0  0  0  0
   19.4070   -7.1250   -5.1320 O   0  0  0  0  0  0  0  0  0  0  0  0
   20.3270   -7.9750   -4.5060 C   0  0  0  0  0  0  0  0  0  0  0  0
   20.9190   -7.6980   -3.2980 C   0  0  0  0  0  0  0  0  0  0  0  0
   21.8550   -8.6250   -2.7790 C   0  0  0  0  0  0  0  0  0  0  0  0
   22.4390   -8.1710   -1.4870 C   0  0  0  0  0  0  0  0  0  0  0  0
   23.9370   -8.4210   -1.4740 C   0  0  0  0  0  0  0  0  0  0  0  0
   24.1460   -9.8380   -0.9640 N   0  0  2  0  0  0  0  0  0  0  0  0
   23.4300  -10.0940   -0.3320 H   0  0  0  0  0  0  0  0  0  0  0  0
   25.5760   -9.9410   -0.3420 C   0  0  0  0  0  0  0  0  0  0  0  0
   26.4770  -10.3530   -1.4990 C   0  0  0  0  0  0  0  0  0  0  0  0
   25.6050  -10.5830   -2.7130 C   0  0  0  0  0  0  0  0  0  0  0  0
   24.2450  -10.8590   -2.0580 C   0  0  2  0  0  0  0  0  0  0  0  0
   24.2910  -12.2430   -1.4430 C   0  0  0  0  0  0  0  0  0  0  0  0
   23.2310  -12.9890   -1.8290 C   0  0  1  0  0  0  0  0  0  0  0  0
   23.0660  -14.2750   -1.3560 O   0  0  0  0  0  0  0  0  0  0  0  0
   22.6010  -15.1360   -2.3600 C   0  0  0  0  0  0  0  0  0  0  0  0
   21.0890  -11.9960   -2.0280 O   0  0  0  0  0  0  0  0  0  0  0  0
   19.9530  -12.3840   -2.7580 C   0  0  0  0  0  0  0  0  0  0  0  0
   19.9210  -13.0510   -3.7580 O   0  0  0  0  0  0  0  0  0  0  0  0
   18.6630  -11.8360   -2.0440 C   0  0  2  0  0  0  0  0  0  0  0  0
   17.4990  -11.7350   -2.9530 O   0  0  0  0  0  0  0  0  0  0  0  0
   16.7330  -11.5800   -2.3670 H   0  0  0  0  0  0  0  0  0  0  0  0
   18.9730  -10.4310   -1.5290 C   0  0  0  0  0  0  0  0  0  0  0  0
   17.7090   -9.5510   -1.6630 C   0  0  0  0  0  0  0  0  0  0  0  0
   17.6240   -8.7320   -2.5830 O   0  0  0  0  0  0  0  0  0  0  0  0
   16.7940   -9.8550   -0.7130 O   0  0  0  0  0  0  0  0  0  0  0  0
   17.2930   -9.6070    0.6010 C   0  0  0  0  0  0  0  0  0  0  0  0
   18.1650  -12.8530   -0.9990 C   0  0  0  0  0  0  0  0  0  0  0  0
   18.0820  -14.3750   -1.2200 C   0  0  0  0  0  0  0  0  0  0  0  0
   16.8980  -14.8840   -2.0340 C   0  0  0  0  0  0  0  0  0  0  0  0
   17.3320  -15.4800   -3.3850 C   0  0  0  0  0  0  0  0  0  0  0  0
   16.2700  -16.4230   -3.9280 C   0  0  0  0  0  0  0  0  0  0  0  0
   18.6670  -16.1880   -3.2530 C   0  0  0  0  0  0  0  0  0  0  0  0
   17.5120  -14.3890   -4.2810 O   0  0  0  0  0  0  0  0  0  0  0  0
   16.6680  -13.9210   -4.3330 H   0  0  0  0  0  0  0  0  0  0  0  0
  1 24  1  1  0  0  0
  1 21  1  0  0  0  0
  2  1  1  0  0  0  0
  2 19  1  1  0  0  0
  3  2  1  0  0  0  0
  3 11  1  0  0  0  0
  4  3  2  0  0  0  0
  5  4  1  0  0  0  0
  5  9  2  0  0  0  0
  6  7  1  0  0  0  0
  6  5  1  0  0  0  0
  7  8  1  0  0  0  0
  8  9  1  0  0  0  0
  9 10  1  0  0  0  0
 10 11  2  0  0  0  0
 11 12  1  0  0  0  0
 12 13  1  0  0  0  0
 13 14  1  0  0  0  0
 14 19  1  6  0  0  0
 14 16  1  0  0  0  0
 14 15  1  0  0  0  0
 17 16  1  0  0  0  0
 18 17  1  0  0  0  0
 19 18  1  6  0  0  0
 19 20  1  0  0  0  0
 21 20  1  0  0  0  0
 21 22  1  1  0  0  0
 23 22  1  0  0  0  0
 25 27  1  0  0  0  0
 25 24  1  0  0  0  0
 26 25  2  0  0  0  0
 27 30  1  1  0  0  0
 27 35  1  0  0  0  0
 28 29  1  0  0  0  0
 28 27  1  0  0  0  0
 31 30  1  0  0  0  0
 31 33  1  0  0  0  0
 32 31  2  0  0  0  0
 33 34  1  0  0  0  0
 36 35  1  0  0  0  0
 37 36  1  0  0  0  0
 38 40  1  0  0  0  0
 38 37  1  0  0  0  0
 39 38  1  0  0  0  0
 41 38  1  0  0  0  0
 42 41  1  0  0  0  0
M  END
>  <minimizedAffinity>
-7.53510284

$$$$

 OpenBabel12271915503D

 42 46  0  0  1  0  0  0  0  0999 V2000
   23.0640  -11.2340   -0.6450 C   0  0  1  0  0  0  0  0  0  0  0  0
   21.4920  -11.3540   -1.0250 C   0  0  1  0  0  0  0  0  0  0  0  0
   21.0100  -10.2640   -2.0140 C   0  0  0  0  0  0  0  0  0  0  0  0
   21.0310   -8.9770   -1.4150 C   0  0  0  0  0  0  0  0  0  0  0  0
   20.6590   -7.8640   -2.2260 C   0  0  0  0  0  0  0  0  0  0  0  0
   20.6680   -6.5810   -1.7320 O   0  0  0  0  0  0  0  0  0  0  0  0
   20.0850   -5.9820   -2.9430 C   0  0  0  0  0  0  0  0  0  0  0  0
   19.9470   -6.8570   -4.1530 O   0  0  0  0  0  0  0  0  0  0  0  0
   20.2960   -8.0510   -3.5090 C   0  0  0  0  0  0  0  0  0  0  0  0
   20.2750   -9.2800   -4.1210 C   0  0  0  0  0  0  0  0  0  0  0  0
   20.6250  -10.4190   -3.3560 C   0  0  0  0  0  0  0  0  0  0  0  0
   20.5190  -11.6790   -4.1420 C   0  0  0  0  0  0  0  0  0  0  0  0
   19.8570  -12.7610   -3.3060 C   0  0  0  0  0  0  0  0  0  0  0  0
   20.9600  -13.4530   -2.5210 N   0  0  2  0  0  0  0  0  0  0  0  0
   21.8120  -13.4360   -3.0220 H   0  0  0  0  0  0  0  0  0  0  0  0
   20.4890  -14.9000   -2.1630 C   0  0  0  0  0  0  0  0  0  0  0  0
   19.7850  -14.7610   -0.8210 C   0  0  0  0  0  0  0  0  0  0  0  0
   19.9270  -13.3270   -0.3630 C   0  0  0  0  0  0  0  0  0  0  0  0
   21.1670  -12.8820   -1.1500 C   0  0  2  0  0  0  0  0  0  0  0  0
   22.3830  -13.5300   -0.5200 C   0  0  0  0  0  0  0  0  0  0  0  0
   23.3470  -12.6180   -0.2590 C   0  0  1  0  0  0  0  0  0  0  0  0
   24.5520  -13.0060    0.2900 O   0  0  0  0  0  0  0  0  0  0  0  0
   25.2260  -13.9150   -0.5380 C   0  0  0  0  0  0  0  0  0  0  0  0
   23.7660  -10.8600   -1.7900 O   0  0  0  0  0  0  0  0  0  0  0  0
   24.9280  -10.1460   -1.4520 C   0  0  0  0  0  0  0  0  0  0  0  0
   25.1270   -9.5060   -0.4530 O   0  0  0  0  0  0  0  0  0  0  0  0
   26.0010  -10.3310   -2.5870 C   0  0  2  0  0  0  0  0  0  0  0  0
   26.7850  -11.5770   -2.4430 O   0  0  0  0  0  0  0  0  0  0  0  0
   27.2630  -11.6760   -3.2900 H   0  0  0  0  0  0  0  0  0  0  0  0
   26.9760   -9.1570   -2.5080 C   0  0  0  0  0  0  0  0  0  0  0  0
   28.4140   -9.7010   -2.3460 C   0  0  0  0  0  0  0  0  0  0  0  0
   29.0550  -10.0500   -3.3410 O   0  0  0  0  0  0  0  0  0  0  0  0
   28.8070   -9.6740   -1.0510 O   0  0  0  0  0  0  0  0  0  0  0  0
   29.9080  -10.5500   -0.8130 C   0  0  0  0  0  0  0  0  0  0  0  0
   25.3020  -10.5480   -3.9440 C   0  0  0  0  0  0  0  0  0  0  0  0
   24.8980   -9.4250   -4.9180 C   0  0  0  0  0  0  0  0  0  0  0  0
   23.6970   -8.5750   -4.5190 C   0  0  0  0  0  0  0  0  0  0  0  0
   24.0800   -7.1060   -4.2640 C   0  0  0  0  0  0  0  0  0  0  0  0
   25.3810   -6.7550   -4.9690 C   0  0  0  0  0  0  0  0  0  0  0  0
   24.1780   -6.8300   -2.7760 C   0  0  0  0  0  0  0  0  0  0  0  0
   23.0210   -6.3070   -4.7800 O   0  0  0  0  0  0  0  0  0  0  0  0
   22.9390   -6.5150   -5.7210 H   0  0  0  0  0  0  0  0  0  0  0  0
  1 24  1  6  0  0  0
  1 21  1  0  0  0  0
  2 19  1  6  0  0  0
  2  1  1  0  0  0  0
  3  4  2  0  0  0  0
  3  2  1  0  0  0  0
  5  6  1  0  0  0  0
  5  4  1  0  0  0  0
  7  6  1  0  0  0  0
  8  9  1  0  0  0  0
  8  7  1  0  0  0  0
  9  5  2  0  0  0  0
 10  9  1  0  0  0  0
 10 11  2  0  0  0  0
 11  3  1  0  0  0  0
 12 11  1  0  0  0  0
 12 13  1  0  0  0  0
 13 14  1  0  0  0  0
 14 16  1  0  0  0  0
 14 19  1  1  0  0  0
 15 14  1  0  0  0  0
 16 17  1  0  0  0  0
 17 18  1  0  0  0  0
 19 20  1  1  0  0  0
 19 18  1  0  0  0  0
 20 21  1  0  0  0  0
 21 22  1  6  0  0  0
 23 22  1  0  0  0  0
 24 25  1  0  0  0  0
 25 26  2  0  0  0  0
 27 35  1  6  0  0  0
 27 30  1  0  0  0  0
 27 28  1  0  0  0  0
 27 25  1  0  0  0  0
 29 28  1  0  0  0  0
 30 31  1  0  0  0  0
 31 33  1  0  0  0  0
 32 31  2  0  0  0  0
 33 34  1  0  0  0  0
 36 37  1  0  0  0  0
 36 35  1  0  0  0  0
 37 38  1  0  0  0  0
 38 40  1  0  0  0  0
 39 38  1  0  0  0  0
 41 38  1  0  0  0  0
 42 41  1  0  0  0  0
M  END
>  <minimizedAffinity>
-7.25570631

$$$$

 OpenBabel12271915503D

 42 46  0  0  1  0  0  0  0  0999 V2000
   17.6640   -9.9940   -2.4080 C   0  0  1  0  0  0  0  0  0  0  0  0
   18.5100   -8.7880   -3.0850 C   0  0  1  0  0  0  0  0  0  0  0  0
   19.9300   -9.2080   -3.5380 C   0  0  0  0  0  0  0  0  0  0  0  0
   20.7590   -9.5100   -2.4260 C   0  0  0  0  0  0  0  0  0  0  0  0
   22.0850   -9.9610   -2.6940 C   0  0  0  0  0  0  0  0  0  0  0  0
   22.9510  -10.2920   -1.6770 O   0  0  0  0  0  0  0  0  0  0  0  0
   24.1010  -10.5170   -2.5670 C   0  0  0  0  0  0  0  0  0  0  0  0
   23.8460  -10.5200   -4.0450 O   0  0  0  0  0  0  0  0  0  0  0  0
   22.5190  -10.0810   -3.9630 C   0  0  0  0  0  0  0  0  0  0  0  0
   21.7390   -9.8080   -5.0610 C   0  0  0  0  0  0  0  0  0  0  0  0
   20.4170   -9.3450   -4.8480 C   0  0  0  0  0  0  0  0  0  0  0  0
   19.7110   -9.0560   -6.1270 C   0  0  0  0  0  0  0  0  0  0  0  0
   18.9460   -7.7490   -6.0150 C   0  0  0  0  0  0  0  0  0  0  0  0
   17.5770   -8.0830   -5.4430 N   0  0  2  0  0  0  0  0  0  0  0  0
   17.2950   -8.9910   -5.7140 H   0  0  0  0  0  0  0  0  0  0  0  0
   16.5660   -6.9730   -5.8780 C   0  0  0  0  0  0  0  0  0  0  0  0
   16.6390   -5.9240   -4.7770 C   0  0  0  0  0  0  0  0  0  0  0  0
   17.5640   -6.4410   -3.6980 C   0  0  0  0  0  0  0  0  0  0  0  0
   17.5050   -7.9540   -3.9500 C   0  0  2  0  0  0  0  0  0  0  0  0
   16.1600   -8.4580   -3.4720 C   0  0  0  0  0  0  0  0  0  0  0  0
   16.2970   -9.5240   -2.6500 C   0  0  1  0  0  0  0  0  0  0  0  0
   15.1890  -10.1560   -2.1260 O   0  0  0  0  0  0  0  0  0  0  0  0
   13.9990   -9.5910   -2.6060 C   0  0  0  0  0  0  0  0  0  0  0  0
   17.9400  -11.1700   -3.1040 O   0  0  0  0  0  0  0  0  0  0  0  0
   17.9910  -12.2680   -2.2280 C   0  0  0  0  0  0  0  0  0  0  0  0
   17.7240  -12.2780   -1.0550 O   0  0  0  0  0  0  0  0  0  0  0  0
   18.4290  -13.5500   -3.0260 C   0  0  2  0  0  0  0  0  0  0  0  0
   17.8310  -13.6220   -4.3780 O   0  0  0  0  0  0  0  0  0  0  0  0
   18.3200  -14.3340   -4.8350 H   0  0  0  0  0  0  0  0  0  0  0  0
   17.9560  -14.7740   -2.2440 C   0  0  0  0  0  0  0  0  0  0  0  0
   17.3320  -15.7940   -3.2250 C   0  0  0  0  0  0  0  0  0  0  0  0
   16.1190  -15.7670   -3.4510 O   0  0  0  0  0  0  0  0  0  0  0  0
   18.2770  -16.5990   -3.7650 O   0  0  0  0  0  0  0  0  0  0  0  0
   17.7000  -17.6290   -4.5660 C   0  0  0  0  0  0  0  0  0  0  0  0
   19.9350  -13.4840   -3.3460 C   0  0  0  0  0  0  0  0  0  0  0  0
   21.0050  -14.4210   -2.7540 C   0  0  0  0  0  0  0  0  0  0  0  0
   22.2570  -13.7590   -2.1910 C   0  0  0  0  0  0  0  0  0  0  0  0
   22.1710  -13.5440   -0.6700 C   0  0  0  0  0  0  0  0  0  0  0  0
   23.5520  -13.3130   -0.0760 C   0  0  0  0  0  0  0  0  0  0  0  0
   21.4850  -14.7210   -0.0020 C   0  0  0  0  0  0  0  0  0  0  0  0
   21.3560  -12.3960   -0.4590 O   0  0  0  0  0  0  0  0  0  0  0  0
   21.7800  -11.6580   -0.9170 H   0  0  0  0  0  0  0  0  0  0  0  0
  1 24  1  6  0  0  0
  2 19  1  6  0  0  0
  2  1  1  0  0  0  0
  3  2  1  0  0  0  0
  3  4  2  0  0  0  0
  5  4  1  0  0  0  0
  5  6  1  0  0  0  0
  7  6  1  0  0  0  0
  8  9  1  0  0  0  0
  8  7  1  0  0  0  0
  9  5  2  0  0  0  0
 10 11  2  0  0  0  0
 10  9  1  0  0  0  0
 11  3  1  0  0  0  0
 12 13  1  0  0  0  0
 12 11  1  0  0  0  0
 13 14  1  0  0  0  0
 14 19  1  1  0  0  0
 15 14  1  0  0  0  0
 16 14  1  0  0  0  0
 16 17  1  0  0  0  0
 17 18  1  0  0  0  0
 19 18  1  1  0  0  0
 19 20  1  0  0  0  0
 20 21  1  0  0  0  0
 21  1  1  0  0  0  0
 21 22  1  6  0  0  0
 23 22  1  0  0  0  0
 24 25  1  0  0  0  0
 25 26  2  0  0  0  0
 27 35  1  6  0  0  0
 27 30  1  0  0  0  0
 27 25  1  0  0  0  0
 28 27  1  0  0  0  0
 29 28  1  0  0  0  0
 31 30  1  0  0  0  0
 32 31  2  0  0  0  0
 33 31  1  0  0  0  0
 34 33  1  0  0  0  0
 35 36  1  0  0  0  0
 36 37  1  0  0  0  0
 37 38  1  0  0  0  0
 38 41  1  0  0  0  0
 38 39  1  0  0  0  0
 38 40  1  0  0  0  0
 42 41  1  0  0  0  0
M  END
>  <minimizedAffinity>
-7.21460485

$$$$

 OpenBabel12271915503D

 42 46  0  0  1  0  0  0  0  0999 V2000
   17.5720   -9.8080   -1.9010 C   0  0  1  0  0  0  0  0  0  0  0  0
   18.5620   -8.8160   -2.7140 C   0  0  1  0  0  0  0  0  0  0  0  0
   20.0380   -9.2830   -2.7190 C   0  0  0  0  0  0  0  0  0  0  0  0
   20.6090   -9.2070   -1.4220 C   0  0  0  0  0  0  0  0  0  0  0  0
   21.9540   -9.6550   -1.2650 C   0  0  0  0  0  0  0  0  0  0  0  0
   22.5800   -9.6330   -0.0400 O   0  0  0  0  0  0  0  0  0  0  0  0
   23.8880  -10.0550   -0.5660 C   0  0  0  0  0  0  0  0  0  0  0  0
   23.9500  -10.5030   -1.9960 O   0  0  0  0  0  0  0  0  0  0  0  0
   22.6430  -10.1220   -2.3240 C   0  0  0  0  0  0  0  0  0  0  0  0
   22.1170  -10.2180   -3.5890 C   0  0  0  0  0  0  0  0  0  0  0  0
   20.7880   -9.7760   -3.8000 C   0  0  0  0  0  0  0  0  0  0  0  0
   20.3720   -9.9070   -5.2240 C   0  0  0  0  0  0  0  0  0  0  0  0
   19.6230   -8.6610   -5.6650 C   0  0  0  0  0  0  0  0  0  0  0  0
   18.1590   -8.8760   -5.3150 N   0  0  2  0  0  0  0  0  0  0  0  0
   17.9240   -9.8360   -5.3560 H   0  0  0  0  0  0  0  0  0  0  0  0
   17.2820   -7.9910   -6.2570 C   0  0  0  0  0  0  0  0  0  0  0  0
   17.1380   -6.6630   -5.5260 C   0  0  0  0  0  0  0  0  0  0  0  0
   17.8070   -6.7980   -4.1760 C   0  0  0  0  0  0  0  0  0  0  0  0
   17.7760   -8.3190   -3.9760 C   0  0  2  0  0  0  0  0  0  0  0  0
   16.3520   -8.7240   -3.6570 C   0  0  0  0  0  0  0  0  0  0  0  0
   16.2950   -9.4950   -2.5470 C   0  0  1  0  0  0  0  0  0  0  0  0
   15.0900   -9.9960   -2.1000 O   0  0  0  0  0  0  0  0  0  0  0  0
   14.0300   -9.6040   -2.9280 C   0  0  0  0  0  0  0  0  0  0  0  0
   17.9680  -11.1230   -2.1440 O   0  0  0  0  0  0  0  0  0  0  0  0
   18.1190  -11.8300   -0.9390 C   0  0  0  0  0  0  0  0  0  0  0  0
   17.8390  -11.4530    0.1680 O   0  0  0  0  0  0  0  0  0  0  0  0
   18.6970  -13.2610   -1.2440 C   0  0  2  0  0  0  0  0  0  0  0  0
   19.6300  -13.2740   -2.3930 O   0  0  0  0  0  0  0  0  0  0  0  0
   20.0630  -14.1490   -2.3590 H   0  0  0  0  0  0  0  0  0  0  0  0
   17.5250  -14.1780   -1.5880 C   0  0  0  0  0  0  0  0  0  0  0  0
   17.7560  -14.7970   -2.9860 C   0  0  0  0  0  0  0  0  0  0  0  0
   17.3960  -14.1860   -3.9960 O   0  0  0  0  0  0  0  0  0  0  0  0
   18.4040  -15.9820   -2.8980 O   0  0  0  0  0  0  0  0  0  0  0  0
   18.1170  -16.8260   -4.0130 C   0  0  0  0  0  0  0  0  0  0  0  0
   19.6080  -13.7190   -0.0880 C   0  0  0  0  0  0  0  0  0  0  0  0
   20.9350  -14.4810   -0.2600 C   0  0  0  0  0  0  0  0  0  0  0  0
   22.2010  -13.6360   -0.3520 C   0  0  0  0  0  0  0  0  0  0  0  0
   23.1950  -14.1850   -1.3910 C   0  0  0  0  0  0  0  0  0  0  0  0
   22.7290  -15.5280   -1.9310 C   0  0  0  0  0  0  0  0  0  0  0  0
   24.5860  -14.2940   -0.7940 C   0  0  0  0  0  0  0  0  0  0  0  0
   23.2560  -13.2340   -2.4490 O   0  0  0  0  0  0  0  0  0  0  0  0
   22.3600  -13.1420   -2.8010 H   0  0  0  0  0  0  0  0  0  0  0  0
  1 24  1  6  0  0  0
  2 19  1  6  0  0  0
  2  1  1  0  0  0  0
  3  2  1  0  0  0  0
  3  4  2  0  0  0  0
  4  5  1  0  0  0  0
  5  6  1  0  0  0  0
  7  6  1  0  0  0  0
  8  7  1  0  0  0  0
  9  8  1  0  0  0  0
  9  5  2  0  0  0  0
 10  9  1  0  0  0  0
 11 10  2  0  0  0  0
 11  3  1  0  0  0  0
 12 11  1  0  0  0  0
 13 14  1  0  0  0  0
 13 12  1  0  0  0  0
 14 19  1  1  0  0  0
 15 14  1  0  0  0  0
 16 17  1  0  0  0  0
 16 14  1  0  0  0  0
 17 18  1  0  0  0  0
 19 18  1  6  0  0  0
 19 20  1  0  0  0  0
 20 21  1  0  0  0  0
 21 22  1  6  0  0  0
 21  1  1  0  0  0  0
 23 22  1  0  0  0  0
 24 25  1  0  0  0  0
 25 26  2  0  0  0  0
 27 30  1  6  0  0  0
 27 25  1  0  0  0  0
 27 35  1  0  0  0  0
 28 29  1  0  0  0  0
 28 27  1  0  0  0  0
 31 33  1  0  0  0  0
 31 30  1  0  0  0  0
 32 31  2  0  0  0  0
 34 33  1  0  0  0  0
 36 35  1  0  0  0  0
 37 36  1  0  0  0  0
 38 40  1  0  0  0  0
 38 37  1  0  0  0  0
 39 38  1  0  0  0  0
 41 38  1  0  0  0  0
 42 41  1  0  0  0  0
M  END
>  <minimizedAffinity>
-7.16293812

$$$$

 OpenBabel12271915503D

 42 46  0  0  1  0  0  0  0  0999 V2000
   23.4220  -10.1220   -2.9400 C   0  0  1  0  0  0  0  0  0  0  0  0
   23.1650  -10.7050   -1.4500 C   0  0  1  0  0  0  0  0  0  0  0  0
   21.6710  -10.9670   -1.1370 C   0  0  0  0  0  0  0  0  0  0  0  0
   20.9380   -9.7540   -1.0670 C   0  0  0  0  0  0  0  0  0  0  0  0
   19.5330   -9.8430   -0.8340 C   0  0  0  0  0  0  0  0  0  0  0  0
   18.7430   -8.7190   -0.7690 O   0  0  0  0  0  0  0  0  0  0  0  0
   17.5240   -9.4520   -0.3900 C   0  0  0  0  0  0  0  0  0  0  0  0
   17.5690  -10.9500   -0.4440 O   0  0  0  0  0  0  0  0  0  0  0  0
   18.9460  -11.0450   -0.6800 C   0  0  0  0  0  0  0  0  0  0  0  0
   19.6250  -12.2370   -0.7530 C   0  0  0  0  0  0  0  0  0  0  0  0
   21.0240  -12.2020   -0.9710 C   0  0  0  0  0  0  0  0  0  0  0  0
   21.6240  -13.5640   -0.9870 C   0  0  0  0  0  0  0  0  0  0  0  0
   22.9200  -13.5720   -0.1950 C   0  0  0  0  0  0  0  0  0  0  0  0
   24.0300  -13.1730   -1.1550 N   0  0  2  0  0  0  0  0  0  0  0  0
   23.8190  -13.4630   -2.0770 H   0  0  0  0  0  0  0  0  0  0  0  0
   25.3820  -13.7510   -0.6270 C   0  0  0  0  0  0  0  0  0  0  0  0
   25.9430  -12.6670    0.2830 C   0  0  0  0  0  0  0  0  0  0  0  0
   25.0200  -11.4710    0.2090 C   0  0  0  0  0  0  0  0  0  0  0  0
   24.3320  -11.7040   -1.1420 C   0  0  2  0  0  0  0  0  0  0  0  0
   25.3310  -11.3930   -2.2380 C   0  0  0  0  0  0  0  0  0  0  0  0
   24.8090  -10.5430   -3.1530 C   0  0  1  0  0  0  0  0  0  0  0  0
   25.5450  -10.1540   -4.2520 O   0  0  0  0  0  0  0  0  0  0  0  0
   25.7510   -8.7670   -4.2700 C   0  0  0  0  0  0  0  0  0  0  0  0
   22.5450  -10.7570   -3.8180 O   0  0  0  0  0  0  0  0  0  0  0  0
   21.8820   -9.8200   -4.6280 C   0  0  0  0  0  0  0  0  0  0  0  0
   22.2960   -8.7530   -4.9980 O   0  0  0  0  0  0  0  0  0  0  0  0
   20.4730  -10.3880   -5.0360 C   0  0  2  0  0  0  0  0  0  0  0  0
   20.1990  -10.2660   -6.4840 O   0  0  0  0  0  0  0  0  0  0  0  0
   19.4070  -10.8180   -6.6410 H   0  0  0  0  0  0  0  0  0  0  0  0
   19.4090   -9.5830   -4.2920 C   0  0  0  0  0  0  0  0  0  0  0  0
   18.8480   -8.4910   -5.2330 C   0  0  0  0  0  0  0  0  0  0  0  0
   17.8430   -8.7210   -5.9110 O   0  0  0  0  0  0  0  0  0  0  0  0
   19.5640   -7.3460   -5.1380 O   0  0  0  0  0  0  0  0  0  0  0  0
   18.9270   -6.2660   -5.8200 C   0  0  0  0  0  0  0  0  0  0  0  0
   20.4410  -11.9160   -4.8320 C   0  0  0  0  0  0  0  0  0  0  0  0
   19.3220  -12.6850   -4.1060 C   0  0  0  0  0  0  0  0  0  0  0  0
   19.5720  -14.1650   -3.8400 C   0  0  0  0  0  0  0  0  0  0  0  0
   18.2950  -14.9050   -3.4020 C   0  0  0  0  0  0  0  0  0  0  0  0
   18.0800  -14.7740   -1.9030 C   0  0  0  0  0  0  0  0  0  0  0  0
   18.3530  -16.3630   -3.8170 C   0  0  0  0  0  0  0  0  0  0  0  0
   17.2100  -14.3030   -4.1010 O   0  0  0  0  0  0  0  0  0  0  0  0
   17.2010  -13.3670   -3.8600 H   0  0  0  0  0  0  0  0  0  0  0  0
  1 24  1  6  0  0  0
  1  2  1  0  0  0  0
  2 19  1  6  0  0  0
  2  3  1  0  0  0  0
  3  4  2  0  0  0  0
  3 11  1  0  0  0  0
  4  5  1  0  0  0  0
  5  6  1  0  0  0  0
  5  9  2  0  0  0  0
  6  7  1  0  0  0  0
  8  7  1  0  0  0  0
  9  8  1  0  0  0  0
 10  9  1  0  0  0  0
 11 10  2  0  0  0  0
 12 11  1  0  0  0  0
 12 13  1  0  0  0  0
 14 19  1  1  0  0  0
 14 16  1  0  0  0  0
 14 13  1  0  0  0  0
 15 14  1  0  0  0  0
 16 17  1  0  0  0  0
 18 17  1  0  0  0  0
 19 20  1  6  0  0  0
 19 18  1  0  0  0  0
 21 22  1  6  0  0  0
 21  1  1  0  0  0  0
 21 20  1  0  0  0  0
 23 22  1  0  0  0  0
 25 24  1  0  0  0  0
 26 25  2  0  0  0  0
 27 35  1  1  0  0  0
 27 25  1  0  0  0  0
 27 30  1  0  0  0  0
 28 27  1  0  0  0  0
 29 28  1  0  0  0  0
 31 33  1  0  0  0  0
 31 30  1  0  0  0  0
 32 31  2  0  0  0  0
 34 33  1  0  0  0  0
 35 36  2  0  0  0  0
 36 37  1  0  0  0  0
 37 38  1  0  0  0  0
 38 39  1  0  0  0  0
 40 38  1  0  0  0  0
 41 42  1  0  0  0  0
 41 38  1  0  0  0  0
M  END
>  <minimizedAffinity>
-7.11613894

$$$$

 OpenBabel12271915503D

 42 46  0  0  1  0  0  0  0  0999 V2000
   22.0780  -10.6190   -3.9750 C   0  0  1  0  0  0  0  0  0  0  0  0
   20.5230  -10.6180   -4.4320 C   0  0  1  0  0  0  0  0  0  0  0  0
   19.6620  -11.6730   -3.6940 C   0  0  0  0  0  0  0  0  0  0  0  0
   20.0350  -12.9920   -4.0600 C   0  0  0  0  0  0  0  0  0  0  0  0
   19.3590  -14.0730   -3.4200 C   0  0  0  0  0  0  0  0  0  0  0  0
   19.6690  -15.3830   -3.7020 O   0  0  0  0  0  0  0  0  0  0  0  0
   18.5870  -15.9430   -2.8750 C   0  0  0  0  0  0  0  0  0  0  0  0
   17.8270  -14.9970   -1.9930 O   0  0  0  0  0  0  0  0  0  0  0  0
   18.3970  -13.8270   -2.5100 C   0  0  0  0  0  0  0  0  0  0  0  0
   18.0200  -12.5630   -2.1260 C   0  0  0  0  0  0  0  0  0  0  0  0
   18.6530  -11.4560   -2.7400 C   0  0  0  0  0  0  0  0  0  0  0  0
   18.1140  -10.1580   -2.2510 C   0  0  0  0  0  0  0  0  0  0  0  0
   17.9090   -9.2060   -3.4170 C   0  0  0  0  0  0  0  0  0  0  0  0
   19.2240   -8.4730   -3.6300 N   0  0  2  0  0  0  0  0  0  0  0  0
   19.7140   -8.3740   -2.7770 H   0  0  0  0  0  0  0  0  0  0  0  0
   18.9300   -7.1070   -4.3300 C   0  0  0  0  0  0  0  0  0  0  0  0
   18.9950   -7.4090   -5.8210 C   0  0  0  0  0  0  0  0  0  0  0  0
   19.4100   -8.8540   -5.9890 C   0  0  0  0  0  0  0  0  0  0  0  0
   20.1110   -9.1220   -4.6510 C   0  0  2  0  0  0  0  0  0  0  0  0
   21.4490   -8.4120   -4.6700 C   0  0  0  0  0  0  0  0  0  0  0  0
   22.4550   -9.2460   -4.3220 C   0  0  1  0  0  0  0  0  0  0  0  0
   23.7550   -8.7890   -4.2470 O   0  0  0  0  0  0  0  0  0  0  0  0
   24.6110   -9.5350   -5.0690 C   0  0  0  0  0  0  0  0  0  0  0  0
   22.1340  -10.8420   -2.6000 O   0  0  0  0  0  0  0  0  0  0  0  0
   23.1220  -11.7900   -2.2860 C   0  0  0  0  0  0  0  0  0  0  0  0
   23.9940  -12.2000   -3.0060 O   0  0  0  0  0  0  0  0  0  0  0  0
   22.9520  -12.2440   -0.7900 C   0  0  2  0  0  0  0  0  0  0  0  0
   23.9670  -13.2350   -0.3690 O   0  0  0  0  0  0  0  0  0  0  0  0
   23.8850  -13.2860    0.6030 H   0  0  0  0  0  0  0  0  0  0  0  0
   21.5790  -12.8980   -0.6510 C   0  0  0  0  0  0  0  0  0  0  0  0
   21.7260  -14.4290   -0.8100 C   0  0  0  0  0  0  0  0  0  0  0  0
   22.3620  -14.8900   -1.7620 O   0  0  0  0  0  0  0  0  0  0  0  0
   21.1330  -15.0890    0.2120 O   0  0  0  0  0  0  0  0  0  0  0  0
   20.1590  -14.2800    0.8710 C   0  0  0  0  0  0  0  0  0  0  0  0
   23.2460  -11.0630    0.1560 C   0  0  0  0  0  0  0  0  0  0  0  0
   24.6540  -10.5530    0.5190 C   0  0  0  0  0  0  0  0  0  0  0  0
   25.4290   -9.8440   -0.5850 C   0  0  0  0  0  0  0  0  0  0  0  0
   26.7400  -10.5710   -0.9380 C   0  0  0  0  0  0  0  0  0  0  0  0
   27.7330  -10.4830    0.2090 C   0  0  0  0  0  0  0  0  0  0  0  0
   27.3350  -10.0080   -2.2150 C   0  0  0  0  0  0  0  0  0  0  0  0
   26.4040  -11.9320   -1.1840 O   0  0  0  0  0  0  0  0  0  0  0  0
   25.9920  -12.2740   -0.3790 H   0  0  0  0  0  0  0  0  0  0  0  0
  1 24  1  1  0  0  0
  2 19  1  1  0  0  0
  2  1  1  0  0  0  0
  2  3  1  0  0  0  0
  3 11  1  0  0  0  0
  4  3  2  0  0  0  0
  4  5  1  0  0  0  0
  5  9  2  0  0  0  0
  6  5  1  0  0  0  0
  6  7  1  0  0  0  0
  7  8  1  0  0  0  0
  9 10  1  0  0  0  0
  9  8  1  0  0  0  0
 11 12  1  0  0  0  0
 11 10  2  0  0  0  0
 13 12  1  0  0  0  0
 14 19  1  6  0  0  0
 14 13  1  0  0  0  0
 14 15  1  0  0  0  0
 16 14  1  0  0  0  0
 17 16  1  0  0  0  0
 18 17  1  0  0  0  0
 19 18  1  6  0  0  0
 20 19  1  0  0  0  0
 20 21  1  0  0  0  0
 21 22  1  1  0  0  0
 21  1  1  0  0  0  0
 23 22  1  0  0  0  0
 24 25  1  0  0  0  0
 25 27  1  0  0  0  0
 26 25  2  0  0  0  0
 27 30  1  1  0  0  0
 27 28  1  0  0  0  0
 27 35  1  0  0  0  0
 28 29  1  0  0  0  0
 31 30  1  0  0  0  0
 31 33  1  0  0  0  0
 32 31  2  0  0  0  0
 33 34  1  0  0  0  0
 35 36  1  0  0  0  0
 37 36  1  0  0  0  0
 38 37  1  0  0  0  0
 38 39  1  0  0  0  0
 40 38  1  0  0  0  0
 41 38  1  0  0  0  0
 41 42  1  0  0  0  0
M  END
>  <minimizedAffinity>
-7.07231903

$$$$

 OpenBabel12271915503D

 42 46  0  0  1  0  0  0  0  0999 V2000
   19.5330  -10.2030   -0.9740 C   0  0  1  0  0  0  0  0  0  0  0  0
   20.8140   -9.3130   -1.4140 C   0  0  1  0  0  0  0  0  0  0  0  0
   22.1010  -10.1460   -1.6320 C   0  0  0  0  0  0  0  0  0  0  0  0
   22.5750  -10.6930   -0.4110 C   0  0  0  0  0  0  0  0  0  0  0  0
   23.7300  -11.5280   -0.4660 C   0  0  0  0  0  0  0  0  0  0  0  0
   24.2480  -12.1130    0.6660 O   0  0  0  0  0  0  0  0  0  0  0  0
   25.4230  -12.6770   -0.0170 C   0  0  0  0  0  0  0  0  0  0  0  0
   25.4630  -12.5950   -1.5140 O   0  0  0  0  0  0  0  0  0  0  0  0
   24.3380  -11.7700   -1.6430 C   0  0  0  0  0  0  0  0  0  0  0  0
   23.8980  -11.2660   -2.8430 C   0  0  0  0  0  0  0  0  0  0  0  0
   22.7620  -10.4210   -2.8410 C   0  0  0  0  0  0  0  0  0  0  0  0
   22.4290   -9.9230   -4.2040 C   0  0  0  0  0  0  0  0  0  0  0  0
   22.0850   -8.4440   -4.1500 C   0  0  0  0  0  0  0  0  0  0  0  0
   20.5970   -8.3450   -3.8520 N   0  0  2  0  0  0  0  0  0  0  0  0
   20.1110   -9.1210   -4.2240 H   0  0  0  0  0  0  0  0  0  0  0  0
   20.0680   -6.9770   -4.3900 C   0  0  0  0  0  0  0  0  0  0  0  0
   20.2440   -6.0050   -3.2310 C   0  0  0  0  0  0  0  0  0  0  0  0
   20.7500   -6.7860   -2.0390 C   0  0  0  0  0  0  0  0  0  0  0  0
   20.2880   -8.2060   -2.3910 C   0  0  2  0  0  0  0  0  0  0  0  0
   18.7880   -8.2760   -2.1910 C   0  0  0  0  0  0  0  0  0  0  0  0
   18.4420   -9.3360   -1.4260 C   0  0  1  0  0  0  0  0  0  0  0  0
   17.1160   -9.6000   -1.1480 O   0  0  0  0  0  0  0  0  0  0  0  0
   16.8360   -9.4410    0.2170 C   0  0  0  0  0  0  0  0  0  0  0  0
   19.5680  -11.4050   -1.6810 O   0  0  0  0  0  0  0  0  0  0  0  0
   18.6300  -12.3150   -1.1670 C   0  0  0  0  0  0  0  0  0  0  0  0
   18.3830  -12.5320   -0.0090 O   0  0  0  0  0  0  0  0  0  0  0  0
   17.8850  -13.0230   -2.3560 C   0  0  2  0  0  0  0  0  0  0  0  0
   16.7160  -12.2570   -2.8430 O   0  0  0  0  0  0  0  0  0  0  0  0
   16.4650  -12.6840   -3.6860 H   0  0  0  0  0  0  0  0  0  0  0  0
   17.3780  -14.3750   -1.8560 C   0  0  0  0  0  0  0  0  0  0  0  0
   16.9410  -15.2340   -3.0650 C   0  0  0  0  0  0  0  0  0  0  0  0
   16.0000  -14.8650   -3.7740 O   0  0  0  0  0  0  0  0  0  0  0  0
   17.7360  -16.3200   -3.2100 O   0  0  0  0  0  0  0  0  0  0  0  0
   17.3480  -17.1140   -4.3310 C   0  0  0  0  0  0  0  0  0  0  0  0
   18.7900  -13.0520   -3.6040 C   0  0  0  0  0  0  0  0  0  0  0  0
   19.9900  -13.9970   -3.8010 C   0  0  0  0  0  0  0  0  0  0  0  0
   21.2180  -13.7310   -2.9380 C   0  0  0  0  0  0  0  0  0  0  0  0
   21.4960  -14.8770   -1.9480 C   0  0  0  0  0  0  0  0  0  0  0  0
   21.4270  -14.3820   -0.5130 C   0  0  0  0  0  0  0  0  0  0  0  0
   22.8400  -15.5170   -2.2360 C   0  0  0  0  0  0  0  0  0  0  0  0
   20.4940  -15.8650   -2.1680 O   0  0  0  0  0  0  0  0  0  0  0  0
   19.6380  -15.4400   -2.0180 H   0  0  0  0  0  0  0  0  0  0  0  0
  1 24  1  6  0  0  0
  2 19  1  6  0  0  0
  2  1  1  0  0  0  0
  3  2  1  0  0  0  0
  3  4  2  0  0  0  0
  5  4  1  0  0  0  0
  5  6  1  0  0  0  0
  7  6  1  0  0  0  0
  8  7  1  0  0  0  0
  9  8  1  0  0  0  0
  9  5  2  0  0  0  0
 10 11  2  0  0  0  0
 10  9  1  0  0  0  0
 11  3  1  0  0  0  0
 12 13  1  0  0  0  0
 12 11  1  0  0  0  0
 13 14  1  0  0  0  0
 14 19  1  1  0  0  0
 15 14  1  0  0  0  0
 16 14  1  0  0  0  0
 16 17  1  0  0  0  0
 17 18  1  0  0  0  0
 19 20  1  1  0  0  0
 19 18  1  0  0  0  0
 20 21  1  0  0  0  0
 21 22  1  6  0  0  0
 21  1  1  0  0  0  0
 22 23  1  0  0  0  0
 24 25  1  0  0  0  0
 25 26  2  0  0  0  0
 27 35  1  6  0  0  0
 27 30  1  0  0  0  0
 27 25  1  0  0  0  0
 28 27  1  0  0  0  0
 29 28  1  0  0  0  0
 31 30  1  0  0  0  0
 32 31  2  0  0  0  0
 33 31  1  0  0  0  0
 34 33  1  0  0  0  0
 36 35  1  0  0  0  0
 36 37  1  0  0  0  0
 37 38  1  0  0  0  0
 38 39  1  0  0  0  0
 40 38  1  0  0  0  0
 41 42  1  0  0  0  0
 41 38  1  0  0  0  0
M  END
>  <minimizedAffinity>
-7.04636002

$$$$

 OpenBabel12271915503D

 42 46  0  0  1  0  0  0  0  0999 V2000
   22.2230   -8.9360   -0.9280 C   0  0  1  0  0  0  0  0  0  0  0  0
   23.5600   -9.8520   -0.9520 C   0  0  1  0  0  0  0  0  0  0  0  0
   23.2900  -11.3310   -1.3210 C   0  0  0  0  0  0  0  0  0  0  0  0
   22.5480  -11.9890   -0.3060 C   0  0  0  0  0  0  0  0  0  0  0  0
   22.1800  -13.3490   -0.5330 C   0  0  0  0  0  0  0  0  0  0  0  0
   21.4460  -14.0580    0.3890 O   0  0  0  0  0  0  0  0  0  0  0  0
   21.5360  -15.3330   -0.3410 C   0  0  0  0  0  0  0  0  0  0  0  0
   22.1150  -15.3020   -1.7240 O   0  0  0  0  0  0  0  0  0  0  0  0
   22.5430  -13.9700   -1.6720 C   0  0  0  0  0  0  0  0  0  0  0  0
   23.2510  -13.3580   -2.6780 C   0  0  0  0  0  0  0  0  0  0  0  0
   23.6500  -12.0120   -2.4960 C   0  0  0  0  0  0  0  0  0  0  0  0
   24.4400  -11.5000   -3.6500 C   0  0  0  0  0  0  0  0  0  0  0  0
   25.6330  -10.7020   -3.1520 C   0  0  0  0  0  0  0  0  0  0  0  0
   25.1600   -9.2690   -2.9600 N   0  0  2  0  0  0  0  0  0  0  0  0
   24.4400   -9.0480   -3.5990 H   0  0  0  0  0  0  0  0  0  0  0  0
   26.3930   -8.3150   -3.0710 C   0  0  0  0  0  0  0  0  0  0  0  0
   26.9300   -8.2020   -1.6510 C   0  0  0  0  0  0  0  0  0  0  0  0
   25.9990   -8.9650   -0.7360 C   0  0  0  0  0  0  0  0  0  0  0  0
   24.7050   -8.9730   -1.5620 C   0  0  2  0  0  0  0  0  0  0  0  0
   24.1110   -7.5800   -1.5170 C   0  0  0  0  0  0  0  0  0  0  0  0
   22.8050   -7.6130   -1.1640 C   0  0  1  0  0  0  0  0  0  0  0  0
   22.0660   -6.4500   -1.0930 O   0  0  0  0  0  0  0  0  0  0  0  0
   22.8850   -5.3150   -1.1650 C   0  0  0  0  0  0  0  0  0  0  0  0
   21.3970   -9.3350   -1.9770 O   0  0  0  0  0  0  0  0  0  0  0  0
   20.0600   -9.4300   -1.5530 C   0  0  0  0  0  0  0  0  0  0  0  0
   19.4770   -8.6880   -0.8080 O   0  0  0  0  0  0  0  0  0  0  0  0
   19.3830  -10.6730   -2.2390 C   0  0  2  0  0  0  0  0  0  0  0  0
   20.3110  -11.4290   -3.1090 O   0  0  0  0  0  0  0  0  0  0  0  0
   19.8460  -12.2640   -3.3120 H   0  0  0  0  0  0  0  0  0  0  0  0
   18.2390  -10.1620   -3.1120 C   0  0  0  0  0  0  0  0  0  0  0  0
   18.8110   -9.2290   -4.2050 C   0  0  0  0  0  0  0  0  0  0  0  0
   19.5970   -9.6760   -5.0450 O   0  0  0  0  0  0  0  0  0  0  0  0
   18.2980   -7.9810   -4.1020 O   0  0  0  0  0  0  0  0  0  0  0  0
   19.3070   -6.9810   -4.2470 C   0  0  0  0  0  0  0  0  0  0  0  0
   19.0140  -11.7260   -1.1750 C   0  0  0  0  0  0  0  0  0  0  0  0
   18.0000  -12.8670   -1.3790 C   0  0  0  0  0  0  0  0  0  0  0  0
   18.5620  -14.2060   -1.8430 C   0  0  0  0  0  0  0  0  0  0  0  0
   17.9100  -14.6920   -3.1500 C   0  0  0  0  0  0  0  0  0  0  0  0
   16.3970  -14.7520   -3.0110 C   0  0  0  0  0  0  0  0  0  0  0  0
   18.4700  -16.0420   -3.5570 C   0  0  0  0  0  0  0  0  0  0  0  0
   18.2660  -13.7570   -4.1620 O   0  0  0  0  0  0  0  0  0  0  0  0
   17.9380  -12.8920   -3.8800 H   0  0  0  0  0  0  0  0  0  0  0  0
  1 24  1  6  0  0  0
  2 19  1  6  0  0  0
  2  1  1  0  0  0  0
  3  2  1  0  0  0  0
  3  4  2  0  0  0  0
  5  4  1  0  0  0  0
  5  6  1  0  0  0  0
  7  6  1  0  0  0  0
  8  9  1  0  0  0  0
  8  7  1  0  0  0  0
  9  5  2  0  0  0  0
 10 11  2  0  0  0  0
 10  9  1  0  0  0  0
 11  3  1  0  0  0  0
 12 13  1  0  0  0  0
 12 11  1  0  0  0  0
 13 14  1  0  0  0  0
 14 19  1  1  0  0  0
 15 14  1  0  0  0  0
 16 14  1  0  0  0  0
 16 17  1  0  0  0  0
 17 18  1  0  0  0  0
 19 20  1  6  0  0  0
 19 18  1  0  0  0  0
 20 21  1  0  0  0  0
 21 22  1  6  0  0  0
 21  1  1  0  0  0  0
 23 22  1  0  0  0  0
 24 25  1  0  0  0  0
 25 26  2  0  0  0  0
 27 30  1  6  0  0  0
 27 25  1  0  0  0  0
 27 35  1  0  0  0  0
 28 27  1  0  0  0  0
 29 28  1  0  0  0  0
 31 33  1  0  0  0  0
 31 30  1  0  0  0  0
 32 31  2  0  0  0  0
 34 33  1  0  0  0  0
 36 35  1  0  0  0  0
 37 36  1  0  0  0  0
 38 39  1  0  0  0  0
 38 37  1  0  0  0  0
 40 38  1  0  0  0  0
 41 42  1  0  0  0  0
 41 38  1  0  0  0  0
M  END
>  <minimizedAffinity>
-6.58270264

$$$$

 OpenBabel12271915503D

 42 46  0  0  1  0  0  0  0  0999 V2000
   20.1750  -11.2000   -1.6340 C   0  0  1  0  0  0  0  0  0  0  0  0
   20.5330  -12.7080   -1.1570 C   0  0  1  0  0  0  0  0  0  0  0  0
   19.6940  -13.7970   -1.8700 C   0  0  0  0  0  0  0  0  0  0  0  0
   18.3280  -13.7260   -1.4920 C   0  0  0  0  0  0  0  0  0  0  0  0
   17.4230  -14.6400   -2.1090 C   0  0  0  0  0  0  0  0  0  0  0  0
   16.0800  -14.6300   -1.8150 O   0  0  0  0  0  0  0  0  0  0  0  0
   15.7720  -15.8230   -2.6200 C   0  0  0  0  0  0  0  0  0  0  0  0
   16.8560  -16.3630   -3.5040 O   0  0  0  0  0  0  0  0  0  0  0  0
   17.8710  -15.5350   -3.0100 C   0  0  0  0  0  0  0  0  0  0  0  0
   19.1840  -15.6220   -3.4060 C   0  0  0  0  0  0  0  0  0  0  0  0
   20.1240  -14.7440   -2.8130 C   0  0  0  0  0  0  0  0  0  0  0  0
   21.5070  -14.9830   -3.3120 C   0  0  0  0  0  0  0  0  0  0  0  0
   22.4910  -14.9490   -2.1560 C   0  0  0  0  0  0  0  0  0  0  0  0
   22.9090  -13.4990   -1.9690 N   0  0  2  0  0  0  0  0  0  0  0  0
   22.8860  -13.0130   -2.8300 H   0  0  0  0  0  0  0  0  0  0  0  0
   24.3130  -13.4650   -1.2840 C   0  0  0  0  0  0  0  0  0  0  0  0
   24.0190  -13.4470    0.2100 C   0  0  0  0  0  0  0  0  0  0  0  0
   22.5190  -13.3680    0.3910 C   0  0  0  0  0  0  0  0  0  0  0  0
   22.0850  -12.7660   -0.9520 C   0  0  2  0  0  0  0  0  0  0  0  0
   22.4740  -11.3020   -0.9590 C   0  0  0  0  0  0  0  0  0  0  0  0
   21.4300  -10.5170   -1.3090 C   0  0  1  0  0  0  0  0  0  0  0  0
   21.5800   -9.1490   -1.4070 O   0  0  0  0  0  0  0  0  0  0  0  0
   20.9250   -8.4840   -0.3610 C   0  0  0  0  0  0  0  0  0  0  0  0
   19.9330  -11.2180   -3.0060 O   0  0  0  0  0  0  0  0  0  0  0  0
   18.9590  -10.2670   -3.3540 C   0  0  0  0  0  0  0  0  0  0  0  0
   17.8260  -10.2020   -2.9530 O   0  0  0  0  0  0  0  0  0  0  0  0
   19.5800   -9.2280   -4.3580 C   0  0  2  0  0  0  0  0  0  0  0  0
   20.1470   -8.0400   -3.6820 O   0  0  0  0  0  0  0  0  0  0  0  0
   20.6650   -7.5790   -4.3700 H   0  0  0  0  0  0  0  0  0  0  0  0
   18.4660   -8.7470   -5.2860 C   0  0  0  0  0  0  0  0  0  0  0  0
   18.1730   -7.2560   -4.9980 C   0  0  0  0  0  0  0  0  0  0  0  0
   18.7870   -6.3790   -5.6100 O   0  0  0  0  0  0  0  0  0  0  0  0
   17.1850   -7.1180   -4.0830 O   0  0  0  0  0  0  0  0  0  0  0  0
   17.4290   -6.0220   -3.2020 C   0  0  0  0  0  0  0  0  0  0  0  0
   20.8240   -9.8310   -5.0390 C   0  0  0  0  0  0  0  0  0  0  0  0
   22.2660   -9.3210   -4.8550 C   0  0  0  0  0  0  0  0  0  0  0  0
   23.2920  -10.3360   -4.3630 C   0  0  0  0  0  0  0  0  0  0  0  0
   24.5890   -9.6650   -3.8760 C   0  0  0  0  0  0  0  0  0  0  0  0
   25.1550   -8.7410   -4.9420 C   0  0  0  0  0  0  0  0  0  0  0  0
   25.6100  -10.7110   -3.4670 C   0  0  0  0  0  0  0  0  0  0  0  0
   24.2550   -8.9140   -2.7130 O   0  0  0  0  0  0  0  0  0  0  0  0
   23.5780   -8.2750   -2.9730 H   0  0  0  0  0  0  0  0  0  0  0  0
  1 24  1  6  0  0  0
  1 21  1  0  0  0  0
  1  2  1  0  0  0  0
  2 19  1  6  0  0  0
  3  4  2  0  0  0  0
  3  2  1  0  0  0  0
  5  6  1  0  0  0  0
  5  4  1  0  0  0  0
  7  6  1  0  0  0  0
  8  9  1  0  0  0  0
  8  7  1  0  0  0  0
  9  5  2  0  0  0  0
 10  9  1  0  0  0  0
 10 11  2  0  0  0  0
 11  3  1  0  0  0  0
 12 11  1  0  0  0  0
 12 13  1  0  0  0  0
 13 14  1  0  0  0  0
 14 16  1  0  0  0  0
 14 19  1  1  0  0  0
 15 14  1  0  0  0  0
 16 17  1  0  0  0  0
 17 18  1  0  0  0  0
 19 20  1  6  0  0  0
 19 18  1  0  0  0  0
 21 22  1  6  0  0  0
 21 20  1  0  0  0  0
 22 23  1  0  0  0  0
 25 24  1  0  0  0  0
 25 26  2  0  0  0  0
 27 30  1  6  0  0  0
 27 28  1  0  0  0  0
 27 25  1  0  0  0  0
 29 28  1  0  0  0  0
 30 31  1  0  0  0  0
 31 33  1  0  0  0  0
 32 31  2  0  0  0  0
 33 34  1  0  0  0  0
 35 36  1  0  0  0  0
 35 27  1  0  0  0  0
 36 37  1  0  0  0  0
 37 38  1  0  0  0  0
 38 40  1  0  0  0  0
 38 41  1  0  0  0  0
 39 38  1  0  0  0  0
 42 41  1  0  0  0  0
M  END
>  <minimizedAffinity>
-6.53545713

$$$$
