
 OpenBabel12271915463D

 22 23  0  0  1  0  0  0  0  0999 V2000
   22.3420  -14.6480   -2.0420 C   0  0  2  0  0  0  0  0  0  0  0  0
   21.8440  -13.5720   -1.0940 C   0  0  2  0  0  0  0  0  0  0  0  0
   20.4850  -13.4520   -1.5400 O   0  0  0  0  0  0  0  0  0  0  0  0
   20.0630  -14.7990   -1.3910 C   0  0  2  0  0  0  0  0  0  0  0  0
   21.2010  -15.6580   -1.9420 C   0  0  0  0  0  0  0  0  0  0  0  0
   18.7760  -15.1070   -2.0680 C   0  0  0  0  0  0  0  0  0  0  0  0
   18.7850  -16.1680   -2.9840 C   0  0  0  0  0  0  0  0  0  0  0  0
   17.6520  -16.4430   -3.7240 C   0  0  0  0  0  0  0  0  0  0  0  0
   17.7050  -17.5700   -4.6940 C   0  0  0  0  0  0  0  0  0  0  0  0
   16.5290  -15.6650   -3.5090 C   0  0  0  0  0  0  0  0  0  0  0  0
   16.5010  -14.6500   -2.6230 N   0  0  0  0  0  0  0  0  0  0  0  0
   17.6160  -14.3760   -1.9160 C   0  0  0  0  0  0  0  0  0  0  0  0
   15.3890  -15.9040   -4.2320 O   0  0  0  0  0  0  0  0  0  0  0  0
   14.8830  -16.6520   -3.8430 H   0  0  0  0  0  0  0  0  0  0  0  0
   23.5580  -15.2650   -1.7000 O   0  0  0  0  0  0  0  0  0  0  0  0
   24.2690  -14.8870   -2.2530 H   0  0  0  0  0  0  0  0  0  0  0  0
   22.5910  -12.2720   -1.0760 C   0  0  0  0  0  0  0  0  0  0  0  0
   23.6140  -12.4050   -0.1090 O   0  0  0  0  0  0  0  0  0  0  0  0
   25.1720  -12.3390   -0.6480 P   0  0  0  0  0  0  0  0  0  0  0  0
   25.0300  -11.9480   -2.1300 O   0  0  0  0  0  0  0  0  0  0  0  0
   25.7700  -13.7640   -0.5050 O   0  0  0  0  0  0  0  0  0  0  0  0
   25.9200  -11.2540    0.1740 O   0  0  0  0  0  0  0  0  0  0  0  0
  1  5  1  0  0  0  0
  1 15  1  1  0  0  0
  1  2  1  0  0  0  0
  2 17  1  6  0  0  0
  3  4  1  0  0  0  0
  3  2  1  0  0  0  0
  4  6  1  6  0  0  0
  5  4  1  0  0  0  0
  6 12  2  0  0  0  0
  7  6  1  0  0  0  0
  8 10  1  0  0  0  0
  8  7  2  0  0  0  0
  9  8  1  0  0  0  0
 10 11  2  0  0  0  0
 11 12  1  0  0  0  0
 13 14  1  0  0  0  0
 13 10  1  0  0  0  0
 16 15  1  0  0  0  0
 17 18  1  0  0  0  0
 19 21  1  0  0  0  0
 19 18  1  0  0  0  0
 19 22  1  0  0  0  0
 20 19  2  0  0  0  0
M  END
>  <minimizedAffinity>
-8.1821413

$$$$

 OpenBabel12271915463D

 22 23  0  0  1  0  0  0  0  0999 V2000
   22.3010  -14.5820   -2.0200 C   0  0  2  0  0  0  0  0  0  0  0  0
   21.7670  -13.4820   -1.1210 C   0  0  2  0  0  0  0  0  0  0  0  0
   20.4130  -13.4050   -1.5940 O   0  0  0  0  0  0  0  0  0  0  0  0
   20.0150  -14.7540   -1.4000 C   0  0  2  0  0  0  0  0  0  0  0  0
   21.1790  -15.6100   -1.9000 C   0  0  0  0  0  0  0  0  0  0  0  0
   18.7460  -15.1130   -2.0860 C   0  0  0  0  0  0  0  0  0  0  0  0
   18.8020  -16.1780   -2.9960 C   0  0  0  0  0  0  0  0  0  0  0  0
   17.6860  -16.4990   -3.7430 C   0  0  0  0  0  0  0  0  0  0  0  0
   17.7890  -17.6290   -4.7060 C   0  0  0  0  0  0  0  0  0  0  0  0
   16.5330  -15.7610   -3.5420 C   0  0  0  0  0  0  0  0  0  0  0  0
   16.4610  -14.7440   -2.6620 N   0  0  0  0  0  0  0  0  0  0  0  0
   17.5590  -14.4240   -1.9480 C   0  0  0  0  0  0  0  0  0  0  0  0
   15.4090  -16.0470   -4.2720 O   0  0  0  0  0  0  0  0  0  0  0  0
   14.9270  -16.8100   -3.8830 H   0  0  0  0  0  0  0  0  0  0  0  0
   23.5230  -15.1620   -1.6350 O   0  0  0  0  0  0  0  0  0  0  0  0
   24.2360  -14.7910   -2.1900 H   0  0  0  0  0  0  0  0  0  0  0  0
   22.4880  -12.1670   -1.1400 C   0  0  0  0  0  0  0  0  0  0  0  0
   21.6130  -11.2150   -0.5700 O   0  0  0  0  0  0  0  0  0  0  0  0
   22.1770   -9.6720   -0.4170 P   0  0  0  0  0  0  0  0  0  0  0  0
   22.7360   -9.3460   -1.8140 O   0  0  0  0  0  0  0  0  0  0  0  0
   23.3100   -9.6980    0.6420 O   0  0  0  0  0  0  0  0  0  0  0  0
   20.9790   -8.7570   -0.0390 O   0  0  0  0  0  0  0  0  0  0  0  0
  1  5  1  0  0  0  0
  1 15  1  1  0  0  0
  1  2  1  0  0  0  0
  2 17  1  6  0  0  0
  3  4  1  0  0  0  0
  3  2  1  0  0  0  0
  4  6  1  6  0  0  0
  5  4  1  0  0  0  0
  6 12  2  0  0  0  0
  7  6  1  0  0  0  0
  8 10  1  0  0  0  0
  8  7  2  0  0  0  0
  9  8  1  0  0  0  0
 10 11  2  0  0  0  0
 11 12  1  0  0  0  0
 13 14  1  0  0  0  0
 13 10  1  0  0  0  0
 16 15  1  0  0  0  0
 17 18  1  0  0  0  0
 18 19  1  0  0  0  0
 19 22  1  0  0  0  0
 19 21  1  0  0  0  0
 20 19  2  0  0  0  0
M  END
>  <minimizedAffinity>
-7.6023097

$$$$

 OpenBabel12271915463D

 22 23  0  0  1  0  0  0  0  0999 V2000
   23.2040  -14.4370   -1.4090 C   0  0  2  0  0  0  0  0  0  0  0  0
   22.8580  -13.3590   -0.3990 C   0  0  2  0  0  0  0  0  0  0  0  0
   21.4850  -13.1200   -0.7460 O   0  0  0  0  0  0  0  0  0  0  0  0
   20.9700  -14.4360   -0.6050 C   0  0  2  0  0  0  0  0  0  0  0  0
   21.9980  -15.3590   -1.2580 C   0  0  0  0  0  0  0  0  0  0  0  0
   19.6200  -14.6210   -1.2000 C   0  0  0  0  0  0  0  0  0  0  0  0
   19.5120  -15.5600   -2.2350 C   0  0  0  0  0  0  0  0  0  0  0  0
   18.3120  -15.7110   -2.9010 C   0  0  0  0  0  0  0  0  0  0  0  0
   18.2410  -16.7090   -4.0010 C   0  0  0  0  0  0  0  0  0  0  0  0
   17.2410  -14.9340   -2.4950 C   0  0  0  0  0  0  0  0  0  0  0  0
   17.3260  -14.0370   -1.4940 N   0  0  0  0  0  0  0  0  0  0  0  0
   18.5050  -13.8830   -0.8590 C   0  0  0  0  0  0  0  0  0  0  0  0
   16.0370  -15.0510   -3.1390 O   0  0  0  0  0  0  0  0  0  0  0  0
   15.5360  -15.8270   -2.8010 H   0  0  0  0  0  0  0  0  0  0  0  0
   24.3890  -15.1570   -1.1700 O   0  0  0  0  0  0  0  0  0  0  0  0
   25.0880  -14.8150   -1.7610 H   0  0  0  0  0  0  0  0  0  0  0  0
   23.7040  -12.1210   -0.3960 C   0  0  0  0  0  0  0  0  0  0  0  0
   24.7090  -12.3140   -1.3710 O   0  0  0  0  0  0  0  0  0  0  0  0
   24.9880  -11.0700   -2.4190 P   0  0  0  0  0  0  0  0  0  0  0  0
   24.4740   -9.8320   -1.6640 O   0  0  0  0  0  0  0  0  0  0  0  0
   24.1390  -11.3380   -3.6900 O   0  0  0  0  0  0  0  0  0  0  0  0
   26.5180  -11.0000   -2.6850 O   0  0  0  0  0  0  0  0  0  0  0  0
  1  5  1  0  0  0  0
  1 15  1  1  0  0  0
  1  2  1  0  0  0  0
  2 17  1  6  0  0  0
  3  4  1  0  0  0  0
  3  2  1  0  0  0  0
  4  6  1  6  0  0  0
  5  4  1  0  0  0  0
  6 12  2  0  0  0  0
  7  6  1  0  0  0  0
  8 10  1  0  0  0  0
  8  7  2  0  0  0  0
  9  8  1  0  0  0  0
 10 11  2  0  0  0  0
 11 12  1  0  0  0  0
 13 14  1  0  0  0  0
 13 10  1  0  0  0  0
 16 15  1  0  0  0  0
 18 17  1  0  0  0  0
 19 20  1  0  0  0  0
 19 18  1  0  0  0  0
 21 19  2  0  0  0  0
 22 19  1  0  0  0  0
M  END
>  <minimizedAffinity>
-7.45891905

$$$$

 OpenBabel12271915463D

 22 23  0  0  1  0  0  0  0  0999 V2000
   20.7450  -12.2850   -2.1790 C   0  0  2  0  0  0  0  0  0  0  0  0
   21.4450  -13.5190   -1.6400 C   0  0  2  0  0  0  0  0  0  0  0  0
   20.3530  -14.4510   -1.6460 O   0  0  0  0  0  0  0  0  0  0  0  0
   19.9780  -14.3720   -3.0130 C   0  0  2  0  0  0  0  0  0  0  0  0
   19.9970  -12.8860   -3.3670 C   0  0  0  0  0  0  0  0  0  0  0  0
   18.6560  -14.9840   -3.3110 C   0  0  0  0  0  0  0  0  0  0  0  0
   18.6670  -16.2960   -3.8040 C   0  0  0  0  0  0  0  0  0  0  0  0
   17.4830  -16.8890   -4.1980 C   0  0  0  0  0  0  0  0  0  0  0  0
   17.5380  -18.2790   -4.7260 C   0  0  0  0  0  0  0  0  0  0  0  0
   16.3140  -16.1610   -4.0640 C   0  0  0  0  0  0  0  0  0  0  0  0
   16.2870  -14.9040   -3.5800 N   0  0  0  0  0  0  0  0  0  0  0  0
   17.4480  -14.3250   -3.2130 C   0  0  0  0  0  0  0  0  0  0  0  0
   15.1230  -16.7150   -4.4520 O   0  0  0  0  0  0  0  0  0  0  0  0
   14.7720  -17.3100   -3.7530 H   0  0  0  0  0  0  0  0  0  0  0  0
   21.5760  -11.2390   -2.6180 O   0  0  0  0  0  0  0  0  0  0  0  0
   21.5970  -10.5450   -1.9310 H   0  0  0  0  0  0  0  0  0  0  0  0
   22.1270  -13.3960   -0.3100 C   0  0  0  0  0  0  0  0  0  0  0  0
   22.9090  -12.2190   -0.3610 O   0  0  0  0  0  0  0  0  0  0  0  0
   24.4790  -12.3800   -0.8430 P   0  0  0  0  0  0  0  0  0  0  0  0
   24.7560  -13.8870   -0.6930 O   0  0  0  0  0  0  0  0  0  0  0  0
   25.3500  -11.5550    0.1420 O   0  0  0  0  0  0  0  0  0  0  0  0
   24.5790  -11.9120   -2.3210 O   0  0  0  0  0  0  0  0  0  0  0  0
  1 15  1  6  0  0  0
  1  2  1  0  0  0  0
  2 17  1  1  0  0  0
  3  2  1  0  0  0  0
  4  6  1  1  0  0  0
  4  3  1  0  0  0  0
  5  4  1  0  0  0  0
  5  1  1  0  0  0  0
  6 12  2  0  0  0  0
  7  6  1  0  0  0  0
  8 10  1  0  0  0  0
  8  7  2  0  0  0  0
  9  8  1  0  0  0  0
 10 11  2  0  0  0  0
 11 12  1  0  0  0  0
 13 10  1  0  0  0  0
 13 14  1  0  0  0  0
 15 16  1  0  0  0  0
 18 17  1  0  0  0  0
 19 20  1  0  0  0  0
 19 18  1  0  0  0  0
 19 21  1  0  0  0  0
 22 19  2  0  0  0  0
M  END
>  <minimizedAffinity>
-7.28245068

$$$$

 OpenBabel12271915463D

 22 23  0  0  1  0  0  0  0  0999 V2000
   19.7480  -13.9340   -0.9710 C   0  0  2  0  0  0  0  0  0  0  0  0
   20.2270  -15.1030   -1.8130 C   0  0  2  0  0  0  0  0  0  0  0  0
   21.5890  -14.7090   -2.0390 O   0  0  0  0  0  0  0  0  0  0  0  0
   22.0220  -14.5600   -0.6950 C   0  0  2  0  0  0  0  0  0  0  0  0
   20.8960  -13.8200    0.0270 C   0  0  0  0  0  0  0  0  0  0  0  0
   23.3180  -13.8450   -0.5540 C   0  0  0  0  0  0  0  0  0  0  0  0
   23.2520  -12.4650   -0.3180 C   0  0  0  0  0  0  0  0  0  0  0  0
   24.4150  -11.7210   -0.2780 C   0  0  0  0  0  0  0  0  0  0  0  0
   24.3020  -10.2570   -0.0360 C   0  0  0  0  0  0  0  0  0  0  0  0
   25.6170  -12.3830   -0.4510 C   0  0  0  0  0  0  0  0  0  0  0  0
   25.6970  -13.7100   -0.6660 N   0  0  0  0  0  0  0  0  0  0  0  0
   24.5560  -14.4280   -0.7200 C   0  0  0  0  0  0  0  0  0  0  0  0
   26.7900  -11.6750   -0.4250 O   0  0  0  0  0  0  0  0  0  0  0  0
   27.0740  -11.5070    0.5010 H   0  0  0  0  0  0  0  0  0  0  0  0
   18.5340  -14.1180   -0.2850 O   0  0  0  0  0  0  0  0  0  0  0  0
   17.8250  -13.6550   -0.7720 H   0  0  0  0  0  0  0  0  0  0  0  0
   19.4680  -15.4010   -3.0710 C   0  0  0  0  0  0  0  0  0  0  0  0
   18.2190  -15.9310   -2.6760 O   0  0  0  0  0  0  0  0  0  0  0  0
   16.8680  -15.1460   -3.2050 P   0  0  0  0  0  0  0  0  0  0  0  0
   16.1070  -14.8120   -1.9080 O   0  0  0  0  0  0  0  0  0  0  0  0
   16.0640  -16.1460   -4.0770 O   0  0  0  0  0  0  0  0  0  0  0  0
   17.3200  -13.8670   -3.9630 O   0  0  0  0  0  0  0  0  0  0  0  0
  1 15  1  1  0  0  0
  1  5  1  0  0  0  0
  2 17  1  6  0  0  0
  2  1  1  0  0  0  0
  3  2  1  0  0  0  0
  3  4  1  0  0  0  0
  4  6  1  6  0  0  0
  4  5  1  0  0  0  0
  6  7  1  0  0  0  0
  7  8  2  0  0  0  0
  8  9  1  0  0  0  0
 10 13  1  0  0  0  0
 10  8  1  0  0  0  0
 11 10  2  0  0  0  0
 12 11  1  0  0  0  0
 12  6  2  0  0  0  0
 13 14  1  0  0  0  0
 16 15  1  0  0  0  0
 17 18  1  0  0  0  0
 19 18  1  0  0  0  0
 19 20  1  0  0  0  0
 21 19  2  0  0  0  0
 22 19  1  0  0  0  0
M  END
>  <minimizedAffinity>
-7.2013135

$$$$

 OpenBabel12271915463D

 22 23  0  0  1  0  0  0  0  0999 V2000
   22.6090  -14.5070   -1.6900 C   0  0  2  0  0  0  0  0  0  0  0  0
   21.8470  -13.4910   -0.8590 C   0  0  2  0  0  0  0  0  0  0  0  0
   20.5920  -13.4840   -1.5570 O   0  0  0  0  0  0  0  0  0  0  0  0
   20.2700  -14.8640   -1.4850 C   0  0  2  0  0  0  0  0  0  0  0  0
   21.5640  -15.6130   -1.8050 C   0  0  0  0  0  0  0  0  0  0  0  0
   19.1680  -15.2740   -2.3940 C   0  0  0  0  0  0  0  0  0  0  0  0
   18.0240  -14.4650   -2.4000 C   0  0  0  0  0  0  0  0  0  0  0  0
   16.9230  -14.8410   -3.1440 C   0  0  0  0  0  0  0  0  0  0  0  0
   15.7230  -13.9610   -3.1150 C   0  0  0  0  0  0  0  0  0  0  0  0
   17.0040  -16.0070   -3.8840 C   0  0  0  0  0  0  0  0  0  0  0  0
   18.1020  -16.7880   -3.8980 N   0  0  0  0  0  0  0  0  0  0  0  0
   19.1670  -16.4240   -3.1570 C   0  0  0  0  0  0  0  0  0  0  0  0
   15.9280  -16.4160   -4.6270 O   0  0  0  0  0  0  0  0  0  0  0  0
   15.8950  -15.9350   -5.4840 H   0  0  0  0  0  0  0  0  0  0  0  0
   23.7870  -15.0200   -1.1200 O   0  0  0  0  0  0  0  0  0  0  0  0
   24.5540  -14.5750   -1.5290 H   0  0  0  0  0  0  0  0  0  0  0  0
   22.4600  -12.1310   -0.7040 C   0  0  0  0  0  0  0  0  0  0  0  0
   22.7840  -11.6810   -2.0040 O   0  0  0  0  0  0  0  0  0  0  0  0
   24.3560  -11.2680   -2.2870 P   0  0  0  0  0  0  0  0  0  0  0  0
   24.4510   -9.8180   -1.7800 O   0  0  0  0  0  0  0  0  0  0  0  0
   24.5820  -11.3360   -3.8210 O   0  0  0  0  0  0  0  0  0  0  0  0
   25.2610  -12.2330   -1.4720 O   0  0  0  0  0  0  0  0  0  0  0  0
  1 15  1  1  0  0  0
  1  2  1  0  0  0  0
  2 17  1  6  0  0  0
  3  4  1  0  0  0  0
  3  2  1  0  0  0  0
  4  6  1  6  0  0  0
  5  1  1  0  0  0  0
  5  4  1  0  0  0  0
  7  6  1  0  0  0  0
  8  9  1  0  0  0  0
  8  7  2  0  0  0  0
 10  8  1  0  0  0  0
 11 10  2  0  0  0  0
 11 12  1  0  0  0  0
 12  6  2  0  0  0  0
 13 10  1  0  0  0  0
 14 13  1  0  0  0  0
 16 15  1  0  0  0  0
 18 17  1  0  0  0  0
 19 18  1  0  0  0  0
 19 20  1  0  0  0  0
 19 22  1  0  0  0  0
 21 19  2  0  0  0  0
M  END
>  <minimizedAffinity>
-6.54612541

$$$$

 OpenBabel12271915463D

 22 23  0  0  1  0  0  0  0  0999 V2000
   22.4930  -12.5070   -2.0920 C   0  0  2  0  0  0  0  0  0  0  0  0
   22.1210  -12.0970   -0.6790 C   0  0  2  0  0  0  0  0  0  0  0  0
   20.7080  -12.3550   -0.7050 O   0  0  0  0  0  0  0  0  0  0  0  0
   20.7220  -13.7240   -1.0810 C   0  0  2  0  0  0  0  0  0  0  0  0
   21.7590  -13.8410   -2.1980 C   0  0  0  0  0  0  0  0  0  0  0  0
   19.3980  -14.2430   -1.5150 C   0  0  0  0  0  0  0  0  0  0  0  0
   19.4070  -15.2760   -2.4610 C   0  0  0  0  0  0  0  0  0  0  0  0
   18.2140  -15.7370   -2.9840 C   0  0  0  0  0  0  0  0  0  0  0  0
   18.2670  -16.8270   -3.9950 C   0  0  0  0  0  0  0  0  0  0  0  0
   17.0400  -15.1670   -2.5260 C   0  0  0  0  0  0  0  0  0  0  0  0
   17.0150  -14.1820   -1.6070 N   0  0  0  0  0  0  0  0  0  0  0  0
   18.1840  -13.7260   -1.1130 C   0  0  0  0  0  0  0  0  0  0  0  0
   15.8380  -15.5930   -3.0280 O   0  0  0  0  0  0  0  0  0  0  0  0
   15.5500  -16.4210   -2.5830 H   0  0  0  0  0  0  0  0  0  0  0  0
   23.8630  -12.6940   -2.3460 O   0  0  0  0  0  0  0  0  0  0  0  0
   24.2050  -11.9090   -2.8170 H   0  0  0  0  0  0  0  0  0  0  0  0
   22.4720  -10.7030   -0.2520 C   0  0  0  0  0  0  0  0  0  0  0  0
   22.5190   -9.9180   -1.4270 O   0  0  0  0  0  0  0  0  0  0  0  0
   21.3350   -8.7850   -1.6220 P   0  0  0  0  0  0  0  0  0  0  0  0
   22.0850   -7.5660   -2.1890 O   0  0  0  0  0  0  0  0  0  0  0  0
   20.7560   -8.4760   -0.2160 O   0  0  0  0  0  0  0  0  0  0  0  0
   20.2910   -9.3490   -2.6260 O   0  0  0  0  0  0  0  0  0  0  0  0
  1 15  1  1  0  0  0
  1  2  1  0  0  0  0
  2 17  1  6  0  0  0
  3  2  1  0  0  0  0
  4  6  1  6  0  0  0
  4  3  1  0  0  0  0
  5  1  1  0  0  0  0
  5  4  1  0  0  0  0
  6 12  2  0  0  0  0
  7  6  1  0  0  0  0
  8 10  1  0  0  0  0
  8  7  2  0  0  0  0
  9  8  1  0  0  0  0
 10 11  2  0  0  0  0
 11 12  1  0  0  0  0
 13 14  1  0  0  0  0
 13 10  1  0  0  0  0
 16 15  1  0  0  0  0
 18 17  1  0  0  0  0
 19 18  1  0  0  0  0
 19 21  1  0  0  0  0
 20 19  1  0  0  0  0
 22 19  2  0  0  0  0
M  END
>  <minimizedAffinity>
-6.37743044

$$$$

 OpenBabel12271915463D

 22 23  0  0  1  0  0  0  0  0999 V2000
   24.0830  -11.8020   -1.8920 C   0  0  2  0  0  0  0  0  0  0  0  0
   24.5590  -12.8670   -0.9200 C   0  0  2  0  0  0  0  0  0  0  0  0
   23.2990  -13.2970   -0.3810 O   0  0  0  0  0  0  0  0  0  0  0  0
   22.6360  -13.6590   -1.5830 C   0  0  2  0  0  0  0  0  0  0  0  0
   22.9430  -12.5440   -2.5830 C   0  0  0  0  0  0  0  0  0  0  0  0
   21.1700  -13.8580   -1.4270 C   0  0  0  0  0  0  0  0  0  0  0  0
   20.5840  -14.8570   -2.2150 C   0  0  0  0  0  0  0  0  0  0  0  0
   19.2130  -15.0280   -2.1950 C   0  0  0  0  0  0  0  0  0  0  0  0
   18.6280  -16.0920   -3.0550 C   0  0  0  0  0  0  0  0  0  0  0  0
   18.4670  -14.2090   -1.3670 C   0  0  0  0  0  0  0  0  0  0  0  0
   19.0180  -13.2530   -0.5950 N   0  0  0  0  0  0  0  0  0  0  0  0
   20.3550  -13.0800   -0.6310 C   0  0  0  0  0  0  0  0  0  0  0  0
   17.1040  -14.3440   -1.3290 O   0  0  0  0  0  0  0  0  0  0  0  0
   16.8450  -15.0880   -0.7410 H   0  0  0  0  0  0  0  0  0  0  0  0
   25.0200  -11.3680   -2.8470 O   0  0  0  0  0  0  0  0  0  0  0  0
   25.3810  -10.5060   -2.5640 H   0  0  0  0  0  0  0  0  0  0  0  0
   25.5510  -12.4510    0.1240 C   0  0  0  0  0  0  0  0  0  0  0  0
   25.7710  -11.0660   -0.0520 O   0  0  0  0  0  0  0  0  0  0  0  0
   27.3380  -10.5570   -0.1360 P   0  0  0  0  0  0  0  0  0  0  0  0
   27.6260  -10.5060   -1.6470 O   0  0  0  0  0  0  0  0  0  0  0  0
   28.2110  -11.6360    0.5590 O   0  0  0  0  0  0  0  0  0  0  0  0
   27.4240   -9.1530    0.5240 O   0  0  0  0  0  0  0  0  0  0  0  0
  1 15  1  6  0  0  0
  1  2  1  0  0  0  0
  2  3  1  0  0  0  0
  2 17  1  1  0  0  0
  4  6  1  1  0  0  0
  4  3  1  0  0  0  0
  5  1  1  0  0  0  0
  5  4  1  0  0  0  0
  6 12  2  0  0  0  0
  7  8  2  0  0  0  0
  7  6  1  0  0  0  0
  8 10  1  0  0  0  0
  9  8  1  0  0  0  0
 10 13  1  0  0  0  0
 10 11  2  0  0  0  0
 12 11  1  0  0  0  0
 13 14  1  0  0  0  0
 15 16  1  0  0  0  0
 18 17  1  0  0  0  0
 19 18  1  0  0  0  0
 19 22  1  0  0  0  0
 19 21  1  0  0  0  0
 20 19  2  0  0  0  0
M  END
>  <minimizedAffinity>
-6.34888887

$$$$

 OpenBabel12271915463D

 22 23  0  0  1  0  0  0  0  0999 V2000
   19.9810  -13.7090   -1.1790 C   0  0  2  0  0  0  0  0  0  0  0  0
   20.5100  -14.9150   -1.9350 C   0  0  2  0  0  0  0  0  0  0  0  0
   21.7000  -14.3510   -2.5060 O   0  0  0  0  0  0  0  0  0  0  0  0
   22.3430  -13.8990   -1.3240 C   0  0  2  0  0  0  0  0  0  0  0  0
   21.2530  -13.2360   -0.4820 C   0  0  0  0  0  0  0  0  0  0  0  0
   23.4770  -12.9700   -1.5720 C   0  0  0  0  0  0  0  0  0  0  0  0
   24.5300  -13.0030   -0.6480 C   0  0  0  0  0  0  0  0  0  0  0  0
   25.5670  -12.0970   -0.7600 C   0  0  0  0  0  0  0  0  0  0  0  0
   26.6610  -12.1570    0.2470 C   0  0  0  0  0  0  0  0  0  0  0  0
   25.5350  -11.1970   -1.8090 C   0  0  0  0  0  0  0  0  0  0  0  0
   24.5360  -11.1620   -2.7120 N   0  0  0  0  0  0  0  0  0  0  0  0
   23.5180  -12.0380   -2.5880 C   0  0  0  0  0  0  0  0  0  0  0  0
   26.5430  -10.2780   -1.9460 O   0  0  0  0  0  0  0  0  0  0  0  0
   27.3240  -10.6830   -2.3840 H   0  0  0  0  0  0  0  0  0  0  0  0
   18.9790  -13.9630   -0.2240 O   0  0  0  0  0  0  0  0  0  0  0  0
   18.1140  -13.7150   -0.6030 H   0  0  0  0  0  0  0  0  0  0  0  0
   19.5980  -15.5490   -2.9420 C   0  0  0  0  0  0  0  0  0  0  0  0
   18.3600  -15.7600   -2.2940 O   0  0  0  0  0  0  0  0  0  0  0  0
   17.0280  -15.0600   -2.9710 P   0  0  0  0  0  0  0  0  0  0  0  0
   16.2390  -16.2520   -3.5440 O   0  0  0  0  0  0  0  0  0  0  0  0
   17.5240  -14.1270   -4.1060 O   0  0  0  0  0  0  0  0  0  0  0  0
   16.2450  -14.3280   -1.8460 O   0  0  0  0  0  0  0  0  0  0  0  0
  1  5  1  0  0  0  0
  1 15  1  1  0  0  0
  2 17  1  6  0  0  0
  2  1  1  0  0  0  0
  3  2  1  0  0  0  0
  3  4  1  0  0  0  0
  4  6  1  6  0  0  0
  4  5  1  0  0  0  0
  6  7  1  0  0  0  0
  8  7  2  0  0  0  0
  8  9  1  0  0  0  0
 10  8  1  0  0  0  0
 11 12  1  0  0  0  0
 11 10  2  0  0  0  0
 12  6  2  0  0  0  0
 13 10  1  0  0  0  0
 14 13  1  0  0  0  0
 16 15  1  0  0  0  0
 17 18  1  0  0  0  0
 19 18  1  0  0  0  0
 19 22  1  0  0  0  0
 20 19  1  0  0  0  0
 21 19  2  0  0  0  0
M  END
>  <minimizedAffinity>
-6.29137468

$$$$
