
 OpenBabel12271915453D

 30 33  0  0  1  0  0  0  0  0999 V2000
   20.0470  -13.5900   -0.8360 C   0  0  1  0  0  0  0  0  0  0  0  0
   20.7210  -14.4140    0.0950 N   0  0  0  0  0  0  0  0  0  0  0  0
   21.1280  -15.2440   -0.3800 H   0  0  0  0  0  0  0  0  0  0  0  0
   21.9190  -13.6380    0.3950 O   0  0  0  0  0  0  0  0  0  0  0  0
   22.3260  -13.0120   -0.8140 C   0  0  2  0  0  0  0  0  0  0  0  0
   23.5800  -13.7890   -1.2510 C   0  0  1  0  0  0  0  0  0  0  0  0
   24.7470  -13.3220   -0.4310 C   0  0  2  0  0  0  0  0  0  0  0  0
   25.0250  -11.8610   -0.8250 C   0  0  1  0  0  0  0  0  0  0  0  0
   23.7420  -10.9730   -0.8520 C   0  0  2  0  0  0  0  0  0  0  0  0
   22.5290  -11.6330   -0.5290 O   0  0  0  0  0  0  0  0  0  0  0  0
   21.1680  -13.1360   -1.7460 C   0  0  0  0  0  0  0  0  0  0  0  0
   18.8940  -14.2670   -1.5360 C   0  0  0  0  0  0  0  0  0  0  0  0
   17.5630  -13.9270   -1.3740 C   0  0  0  0  0  0  0  0  0  0  0  0
   16.5610  -14.5840   -2.0910 C   0  0  0  0  0  0  0  0  0  0  0  0
   16.9230  -15.6310   -2.9760 C   0  0  0  0  0  0  0  0  0  0  0  0
   15.9460  -16.3120   -3.7200 C   0  0  0  0  0  0  0  0  0  0  0  0
   16.3350  -17.3420   -4.5820 C   0  0  0  0  0  0  0  0  0  0  0  0
   17.6690  -17.6950   -4.7270 C   0  0  0  0  0  0  0  0  0  0  0  0
   18.6470  -17.0200   -3.9950 C   0  0  0  0  0  0  0  0  0  0  0  0
   18.2550  -15.9920   -3.1160 C   0  0  0  0  0  0  0  0  0  0  0  0
   19.2380  -15.3330   -2.3940 C   0  0  0  0  0  0  0  0  0  0  0  0
   25.9000  -14.1260   -0.6630 O   0  0  0  0  0  0  0  0  0  0  0  0
   25.6900  -14.7710   -1.3880 H   0  0  0  0  0  0  0  0  0  0  0  0
   23.4570  -15.2420   -1.1440 O   0  0  0  0  0  0  0  0  0  0  0  0
   23.6500  -15.4650   -0.2110 H   0  0  0  0  0  0  0  0  0  0  0  0
   26.0120  -11.3370    0.0820 O   0  0  0  0  0  0  0  0  0  0  0  0
   25.8660  -10.3470    0.1860 H   0  0  0  0  0  0  0  0  0  0  0  0
   23.6040  -10.2260   -2.1830 C   0  0  0  0  0  0  0  0  0  0  0  0
   24.1870  -10.9470   -3.2560 O   0  0  0  0  0  0  0  0  0  0  0  0
   25.1470  -10.7690   -3.2550 H   0  0  0  0  0  0  0  0  0  0  0  0
  1 12  1  6  0  0  0
  1  2  1  0  0  0  0
  2  4  1  0  0  0  0
  3  2  1  0  0  0  0
  5 11  1  6  0  0  0
  5 10  1  0  0  0  0
  5  4  1  0  0  0  0
  6 24  1  0  0  0  0
  6  5  1  1  0  0  0
  6  7  1  0  0  0  0
  7 22  1  6  0  0  0
  8  7  1  0  0  0  0
  8 26  1  1  0  0  0
  9 28  1  6  0  0  0
  9  8  1  0  0  0  0
  9 10  1  0  0  0  0
 11  1  1  0  0  0  0
 12 13  1  0  0  0  0
 14 13  2  0  0  0  0
 15 14  1  0  0  0  0
 16 15  2  0  0  0  0
 17 16  1  0  0  0  0
 18 17  2  0  0  0  0
 18 19  1  0  0  0  0
 19 20  2  0  0  0  0
 20 15  1  0  0  0  0
 20 21  1  0  0  0  0
 21 12  2  0  0  0  0
 23 22  1  0  0  0  0
 24 25  1  0  0  0  0
 26 27  1  0  0  0  0
 29 30  1  0  0  0  0
 29 28  1  0  0  0  0
M  END
>  <minimizedAffinity>
-10.3934736

$$$$

 OpenBabel12271915453D

 30 33  0  0  1  0  0  0  0  0999 V2000
   20.6170  -13.1360   -0.5560 C   0  0  1  0  0  0  0  0  0  0  0  0
   21.7220  -13.9990   -0.3690 N   0  0  0  0  0  0  0  0  0  0  0  0
   22.0690  -14.3510   -1.2820 H   0  0  0  0  0  0  0  0  0  0  0  0
   22.7850  -13.0740    0.0060 O   0  0  0  0  0  0  0  0  0  0  0  0
   22.6020  -11.8920   -0.7600 C   0  0  2  0  0  0  0  0  0  0  0  0
   23.7270  -11.9300   -1.8090 C   0  0  1  0  0  0  0  0  0  0  0  0
   25.0080  -11.4980   -1.1570 C   0  0  2  0  0  0  0  0  0  0  0  0
   24.8560  -10.0120   -0.7900 C   0  0  1  0  0  0  0  0  0  0  0  0
   23.5140   -9.6910   -0.0600 C   0  0  2  0  0  0  0  0  0  0  0  0
   22.6430  -10.7920    0.1410 O   0  0  0  0  0  0  0  0  0  0  0  0
   21.2270  -11.9850   -1.3290 C   0  0  0  0  0  0  0  0  0  0  0  0
   19.4300  -13.7890   -1.2210 C   0  0  0  0  0  0  0  0  0  0  0  0
   18.1150  -13.4030   -1.0440 C   0  0  0  0  0  0  0  0  0  0  0  0
   17.0790  -14.0420   -1.7270 C   0  0  0  0  0  0  0  0  0  0  0  0
   17.3900  -15.1200   -2.5940 C   0  0  0  0  0  0  0  0  0  0  0  0
   16.3770  -15.7850   -3.3050 C   0  0  0  0  0  0  0  0  0  0  0  0
   16.7170  -16.8460   -4.1490 C   0  0  0  0  0  0  0  0  0  0  0  0
   18.0360  -17.2470   -4.3090 C   0  0  0  0  0  0  0  0  0  0  0  0
   19.0480  -16.5880   -3.6110 C   0  0  0  0  0  0  0  0  0  0  0  0
   18.7060  -15.5270   -2.7490 C   0  0  0  0  0  0  0  0  0  0  0  0
   19.7240  -14.8860   -2.0590 C   0  0  0  0  0  0  0  0  0  0  0  0
   26.1210  -11.6820   -2.0270 O   0  0  0  0  0  0  0  0  0  0  0  0
   25.7810  -11.9800   -2.9110 H   0  0  0  0  0  0  0  0  0  0  0  0
   23.9160  -13.2340   -2.4440 O   0  0  0  0  0  0  0  0  0  0  0  0
   24.4730  -13.7570   -1.8330 H   0  0  0  0  0  0  0  0  0  0  0  0
   25.9940   -9.6310    0.0030 O   0  0  0  0  0  0  0  0  0  0  0  0
   25.7200   -8.8970    0.6340 H   0  0  0  0  0  0  0  0  0  0  0  0
   22.7670   -8.5390   -0.7410 C   0  0  0  0  0  0  0  0  0  0  0  0
   23.5500   -7.3580   -0.7930 O   0  0  0  0  0  0  0  0  0  0  0  0
   23.4690   -6.9030    0.0670 H   0  0  0  0  0  0  0  0  0  0  0  0
  1 12  1  6  0  0  0
  1  2  1  0  0  0  0
  2  4  1  0  0  0  0
  3  2  1  0  0  0  0
  5 11  1  6  0  0  0
  5  4  1  0  0  0  0
  5 10  1  0  0  0  0
  6  7  1  0  0  0  0
  6  5  1  1  0  0  0
  7 22  1  6  0  0  0
  7  8  1  0  0  0  0
  8  9  1  0  0  0  0
  8 26  1  1  0  0  0
  9 28  1  6  0  0  0
  9 10  1  0  0  0  0
 11  1  1  0  0  0  0
 12 13  1  0  0  0  0
 14 13  2  0  0  0  0
 15 14  1  0  0  0  0
 16 15  2  0  0  0  0
 17 16  1  0  0  0  0
 18 17  2  0  0  0  0
 18 19  1  0  0  0  0
 19 20  2  0  0  0  0
 20 15  1  0  0  0  0
 20 21  1  0  0  0  0
 21 12  2  0  0  0  0
 23 22  1  0  0  0  0
 24 25  1  0  0  0  0
 24  6  1  0  0  0  0
 26 27  1  0  0  0  0
 29 28  1  0  0  0  0
 29 30  1  0  0  0  0
M  END
>  <minimizedAffinity>
-9.39516735

$$$$

 OpenBabel12271915453D

 30 33  0  0  1  0  0  0  0  0999 V2000
   22.1830  -12.6860   -0.9660 C   0  0  1  0  0  0  0  0  0  0  0  0
   22.8910  -13.2400    0.1260 N   0  0  0  0  0  0  0  0  0  0  0  0
   23.5290  -13.9930   -0.1970 H   0  0  0  0  0  0  0  0  0  0  0  0
   23.8370  -12.1820    0.4580 O   0  0  0  0  0  0  0  0  0  0  0  0
   24.2550  -11.5940   -0.7660 C   0  0  2  0  0  0  0  0  0  0  0  0
   25.6970  -12.0950   -0.9660 C   0  0  1  0  0  0  0  0  0  0  0  0
   26.6110  -11.2940   -0.0860 C   0  0  2  0  0  0  0  0  0  0  0  0
   26.6130   -9.8530   -0.6230 C   0  0  1  0  0  0  0  0  0  0  0  0
   25.1820   -9.2940   -0.8970 C   0  0  2  0  0  0  0  0  0  0  0  0
   24.1110  -10.1850   -0.6310 O   0  0  0  0  0  0  0  0  0  0  0  0
   23.2890  -12.0710   -1.7970 C   0  0  0  0  0  0  0  0  0  0  0  0
   21.3110  -13.6750   -1.7000 C   0  0  0  0  0  0  0  0  0  0  0  0
   21.7810  -14.7190   -2.4750 C   0  0  0  0  0  0  0  0  0  0  0  0
   20.9020  -15.6100   -3.0910 C   0  0  0  0  0  0  0  0  0  0  0  0
   19.5060  -15.4170   -2.9350 C   0  0  0  0  0  0  0  0  0  0  0  0
   18.5880  -16.2950   -3.5340 C   0  0  0  0  0  0  0  0  0  0  0  0
   17.2170  -16.0750   -3.3630 C   0  0  0  0  0  0  0  0  0  0  0  0
   16.7470  -15.0140   -2.6020 C   0  0  0  0  0  0  0  0  0  0  0  0
   17.6520  -14.1400   -2.0000 C   0  0  0  0  0  0  0  0  0  0  0  0
   19.0330  -14.3530   -2.1830 C   0  0  0  0  0  0  0  0  0  0  0  0
   19.9190  -13.4720   -1.5800 C   0  0  0  0  0  0  0  0  0  0  0  0
   27.9330  -11.8260   -0.0920 O   0  0  0  0  0  0  0  0  0  0  0  0
   27.9690  -12.5680   -0.7520 H   0  0  0  0  0  0  0  0  0  0  0  0
   25.8820  -13.5200   -0.6970 O   0  0  0  0  0  0  0  0  0  0  0  0
   25.9920  -13.6040    0.2720 H   0  0  0  0  0  0  0  0  0  0  0  0
   27.3300   -9.0310    0.3150 O   0  0  0  0  0  0  0  0  0  0  0  0
   26.9580   -8.0970    0.2820 H   0  0  0  0  0  0  0  0  0  0  0  0
   25.0630   -8.7280   -2.3160 C   0  0  0  0  0  0  0  0  0  0  0  0
   25.9500   -9.3700   -3.2180 O   0  0  0  0  0  0  0  0  0  0  0  0
   26.8290   -8.9560   -3.1250 H   0  0  0  0  0  0  0  0  0  0  0  0
  1 12  1  6  0  0  0
  1  2  1  0  0  0  0
  2  4  1  0  0  0  0
  3  2  1  0  0  0  0
  5 11  1  6  0  0  0
  5 10  1  0  0  0  0
  5  4  1  0  0  0  0
  6  5  1  1  0  0  0
  6 24  1  0  0  0  0
  6  7  1  0  0  0  0
  7 22  1  6  0  0  0
  8  7  1  0  0  0  0
  8 26  1  1  0  0  0
  9 28  1  6  0  0  0
  9 10  1  0  0  0  0
  9  8  1  0  0  0  0
 11  1  1  0  0  0  0
 12 21  1  0  0  0  0
 13 12  2  0  0  0  0
 14 15  2  0  0  0  0
 14 13  1  0  0  0  0
 15 20  1  0  0  0  0
 16 17  2  0  0  0  0
 16 15  1  0  0  0  0
 17 18  1  0  0  0  0
 18 19  2  0  0  0  0
 20 19  1  0  0  0  0
 20 21  2  0  0  0  0
 23 22  1  0  0  0  0
 24 25  1  0  0  0  0
 27 26  1  0  0  0  0
 29 30  1  0  0  0  0
 29 28  1  0  0  0  0
M  END
>  <minimizedAffinity>
-8.77455902

$$$$

 OpenBabel12271915453D

 30 33  0  0  1  0  0  0  0  0999 V2000
   21.6070  -13.3200   -1.0900 C   0  0  1  0  0  0  0  0  0  0  0  0
   20.6840  -12.4860   -0.4160 N   0  0  0  0  0  0  0  0  0  0  0  0
   20.5170  -11.6150   -0.9560 H   0  0  0  0  0  0  0  0  0  0  0  0
   19.4220  -13.1910   -0.6080 O   0  0  0  0  0  0  0  0  0  0  0  0
   19.4470  -13.7450   -1.9160 C   0  0  2  0  0  0  0  0  0  0  0  0
   18.4740  -12.8720   -2.7270 C   0  0  1  0  0  0  0  0  0  0  0  0
   17.0690  -13.2890   -2.4060 C   0  0  2  0  0  0  0  0  0  0  0  0
   16.8790  -14.7130   -2.9570 C   0  0  1  0  0  0  0  0  0  0  0  0
   18.0410  -15.6830   -2.5740 C   0  0  2  0  0  0  0  0  0  0  0  0
   19.0870  -15.1170   -1.8030 O   0  0  0  0  0  0  0  0  0  0  0  0
   20.8670  -13.6650   -2.3650 C   0  0  0  0  0  0  0  0  0  0  0  0
   22.9660  -12.6970   -1.2920 C   0  0  0  0  0  0  0  0  0  0  0  0
   24.0020  -12.7490   -0.3780 C   0  0  0  0  0  0  0  0  0  0  0  0
   25.2420  -12.1750   -0.6630 C   0  0  0  0  0  0  0  0  0  0  0  0
   25.4220  -11.5070   -1.9010 C   0  0  0  0  0  0  0  0  0  0  0  0
   26.6560  -10.9210   -2.2280 C   0  0  0  0  0  0  0  0  0  0  0  0
   26.8000  -10.2680   -3.4560 C   0  0  0  0  0  0  0  0  0  0  0  0
   25.7520  -10.1980   -4.3630 C   0  0  0  0  0  0  0  0  0  0  0  0
   24.5250  -10.7820   -4.0470 C   0  0  0  0  0  0  0  0  0  0  0  0
   24.3740  -11.4290   -2.8050 C   0  0  0  0  0  0  0  0  0  0  0  0
   23.1460  -12.0000   -2.5060 C   0  0  0  0  0  0  0  0  0  0  0  0
   16.1180  -12.4020   -2.9880 O   0  0  0  0  0  0  0  0  0  0  0  0
   16.6060  -11.7470   -3.5520 H   0  0  0  0  0  0  0  0  0  0  0  0
   18.6220  -11.4350   -2.5000 O   0  0  0  0  0  0  0  0  0  0  0  0
   18.1170  -11.2330   -1.6860 H   0  0  0  0  0  0  0  0  0  0  0  0
   15.6080  -15.2020   -2.4940 O   0  0  0  0  0  0  0  0  0  0  0  0
   15.6580  -16.2030   -2.4010 H   0  0  0  0  0  0  0  0  0  0  0  0
   18.6110  -16.3890   -3.8090 C   0  0  0  0  0  0  0  0  0  0  0  0
   17.5870  -16.8620   -4.6680 O   0  0  0  0  0  0  0  0  0  0  0  0
   17.2730  -17.7190   -4.3230 H   0  0  0  0  0  0  0  0  0  0  0  0
  1 12  1  6  0  0  0
  1  2  1  0  0  0  0
  3  2  1  0  0  0  0
  4  2  1  0  0  0  0
  5 11  1  6  0  0  0
  5 10  1  0  0  0  0
  5  4  1  0  0  0  0
  6 24  1  0  0  0  0
  6  7  1  0  0  0  0
  6  5  1  1  0  0  0
  7 22  1  6  0  0  0
  8  9  1  0  0  0  0
  8 26  1  1  0  0  0
  8  7  1  0  0  0  0
  9 28  1  6  0  0  0
  9 10  1  0  0  0  0
 11  1  1  0  0  0  0
 12 13  2  0  0  0  0
 14 13  1  0  0  0  0
 15 14  2  0  0  0  0
 16 15  1  0  0  0  0
 17 16  2  0  0  0  0
 18 19  2  0  0  0  0
 18 17  1  0  0  0  0
 19 20  1  0  0  0  0
 20 21  2  0  0  0  0
 20 15  1  0  0  0  0
 21 12  1  0  0  0  0
 23 22  1  0  0  0  0
 24 25  1  0  0  0  0
 26 27  1  0  0  0  0
 29 30  1  0  0  0  0
 29 28  1  0  0  0  0
M  END
>  <minimizedAffinity>
-8.18189621

$$$$

 OpenBabel12271915453D

 30 33  0  0  1  0  0  0  0  0999 V2000
   25.5290  -10.8820   -0.4230 C   0  0  1  0  0  0  0  0  0  0  0  0
   26.6440  -11.7330   -0.6060 N   0  0  0  0  0  0  0  0  0  0  0  0
   26.6520  -12.1220   -1.5690 H   0  0  0  0  0  0  0  0  0  0  0  0
   27.7550  -10.7900   -0.6670 O   0  0  0  0  0  0  0  0  0  0  0  0
   27.2920   -9.6410   -1.3620 C   0  0  2  0  0  0  0  0  0  0  0  0
   27.9740   -9.7190   -2.7400 C   0  0  1  0  0  0  0  0  0  0  0  0
   29.3950   -9.2570   -2.6000 C   0  0  2  0  0  0  0  0  0  0  0  0
   29.3550   -7.7570   -2.2590 C   0  0  1  0  0  0  0  0  0  0  0  0
   28.3530   -7.4100   -1.1140 C   0  0  2  0  0  0  0  0  0  0  0  0
   27.6290   -8.5050   -0.5770 O   0  0  0  0  0  0  0  0  0  0  0  0
   25.8060   -9.7630   -1.4040 C   0  0  0  0  0  0  0  0  0  0  0  0
   24.1960  -11.5670   -0.5990 C   0  0  0  0  0  0  0  0  0  0  0  0
   22.9680  -10.9740   -0.3710 C   0  0  0  0  0  0  0  0  0  0  0  0
   21.7800  -11.6720   -0.5940 C   0  0  0  0  0  0  0  0  0  0  0  0
   21.8460  -13.0170   -1.0370 C   0  0  0  0  0  0  0  0  0  0  0  0
   20.6730  -13.7520   -1.2790 C   0  0  0  0  0  0  0  0  0  0  0  0
   20.7730  -15.0770   -1.7120 C   0  0  0  0  0  0  0  0  0  0  0  0
   22.0070  -15.6770   -1.9210 C   0  0  0  0  0  0  0  0  0  0  0  0
   23.1760  -14.9530   -1.6870 C   0  0  0  0  0  0  0  0  0  0  0  0
   23.0770  -13.6220   -1.2380 C   0  0  0  0  0  0  0  0  0  0  0  0
   24.2490  -12.9170   -1.0060 C   0  0  0  0  0  0  0  0  0  0  0  0
   30.1320   -9.4730   -3.8000 O   0  0  0  0  0  0  0  0  0  0  0  0
   29.5060   -9.8080   -4.4950 H   0  0  0  0  0  0  0  0  0  0  0  0
   27.9490  -11.0480   -3.3500 O   0  0  0  0  0  0  0  0  0  0  0  0
   28.6960  -11.5440   -2.9570 H   0  0  0  0  0  0  0  0  0  0  0  0
   30.6930   -7.3390   -1.9350 O   0  0  0  0  0  0  0  0  0  0  0  0
   30.6470   -6.5810   -1.2760 H   0  0  0  0  0  0  0  0  0  0  0  0
   27.3930   -6.2900   -1.5300 C   0  0  0  0  0  0  0  0  0  0  0  0
   26.2570   -6.2270   -0.6840 O   0  0  0  0  0  0  0  0  0  0  0  0
   25.6130   -6.8930   -0.9920 H   0  0  0  0  0  0  0  0  0  0  0  0
  1 12  1  6  0  0  0
  2  1  1  0  0  0  0
  3  2  1  0  0  0  0
  4  2  1  0  0  0  0
  5 11  1  6  0  0  0
  5  4  1  0  0  0  0
  5 10  1  0  0  0  0
  6  7  1  0  0  0  0
  6  5  1  1  0  0  0
  7 22  1  6  0  0  0
  7  8  1  0  0  0  0
  8 26  1  1  0  0  0
  8  9  1  0  0  0  0
  9 28  1  6  0  0  0
  9 10  1  0  0  0  0
 11  1  1  0  0  0  0
 12 13  1  0  0  0  0
 14 13  2  0  0  0  0
 15 14  1  0  0  0  0
 16 15  2  0  0  0  0
 17 16  1  0  0  0  0
 18 17  2  0  0  0  0
 18 19  1  0  0  0  0
 19 20  2  0  0  0  0
 20 15  1  0  0  0  0
 20 21  1  0  0  0  0
 21 12  2  0  0  0  0
 23 22  1  0  0  0  0
 24 25  1  0  0  0  0
 24  6  1  0  0  0  0
 26 27  1  0  0  0  0
 28 29  1  0  0  0  0
 30 29  1  0  0  0  0
M  END
>  <minimizedAffinity>
-8.14478016

$$$$

 OpenBabel12271915453D

 30 33  0  0  1  0  0  0  0  0999 V2000
   20.9190  -11.5630   -1.8330 C   0  0  1  0  0  0  0  0  0  0  0  0
   21.4020  -11.7880   -0.5240 N   0  0  0  0  0  0  0  0  0  0  0  0
   21.6980  -12.7770   -0.4080 H   0  0  0  0  0  0  0  0  0  0  0  0
   22.6880  -11.1010   -0.5390 O   0  0  0  0  0  0  0  0  0  0  0  0
   23.2550  -11.3030   -1.8260 C   0  0  2  0  0  0  0  0  0  0  0  0
   24.3940  -12.3130   -1.5950 C   0  0  1  0  0  0  0  0  0  0  0  0
   25.5720  -11.5860   -1.0160 C   0  0  2  0  0  0  0  0  0  0  0  0
   26.0990  -10.6330   -2.1020 C   0  0  1  0  0  0  0  0  0  0  0  0
   24.9760   -9.7890   -2.7820 C   0  0  2  0  0  0  0  0  0  0  0  0
   23.6580  -10.0310   -2.3170 O   0  0  0  0  0  0  0  0  0  0  0  0
   22.1470  -11.8120   -2.6840 C   0  0  0  0  0  0  0  0  0  0  0  0
   19.7140  -12.3970   -2.1970 C   0  0  0  0  0  0  0  0  0  0  0  0
   18.4060  -11.9510   -2.1600 C   0  0  0  0  0  0  0  0  0  0  0  0
   17.3520  -12.7800   -2.5480 C   0  0  0  0  0  0  0  0  0  0  0  0
   17.6380  -14.1060   -2.9620 C   0  0  0  0  0  0  0  0  0  0  0  0
   16.6070  -14.9700   -3.3660 C   0  0  0  0  0  0  0  0  0  0  0  0
   16.9220  -16.2730   -3.7660 C   0  0  0  0  0  0  0  0  0  0  0  0
   18.2340  -16.7240   -3.7830 C   0  0  0  0  0  0  0  0  0  0  0  0
   19.2640  -15.8710   -3.3870 C   0  0  0  0  0  0  0  0  0  0  0  0
   18.9470  -14.5630   -2.9720 C   0  0  0  0  0  0  0  0  0  0  0  0
   19.9830  -13.7290   -2.5770 C   0  0  0  0  0  0  0  0  0  0  0  0
   26.5950  -12.4930   -0.6140 O   0  0  0  0  0  0  0  0  0  0  0  0
   26.3270  -13.4090   -0.8890 H   0  0  0  0  0  0  0  0  0  0  0  0
   24.0370  -13.4360   -0.7290 O   0  0  0  0  0  0  0  0  0  0  0  0
   24.1400  -13.1160    0.1900 H   0  0  0  0  0  0  0  0  0  0  0  0
   27.1040   -9.7930   -1.5070 O   0  0  0  0  0  0  0  0  0  0  0  0
   27.1100   -8.9060   -1.9810 H   0  0  0  0  0  0  0  0  0  0  0  0
   25.0320   -9.9060   -4.3080 C   0  0  0  0  0  0  0  0  0  0  0  0
   25.4960  -11.1800   -4.7250 O   0  0  0  0  0  0  0  0  0  0  0  0
   26.4720  -11.1730   -4.6890 H   0  0  0  0  0  0  0  0  0  0  0  0
  1 12  1  6  0  0  0
  1  2  1  0  0  0  0
  2  3  1  0  0  0  0
  4  2  1  0  0  0  0
  5 11  1  6  0  0  0
  5  4  1  0  0  0  0
  6  5  1  1  0  0  0
  6  7  1  0  0  0  0
  6 24  1  0  0  0  0
  7 22  1  6  0  0  0
  8 26  1  1  0  0  0
  8  7  1  0  0  0  0
  9 28  1  6  0  0  0
  9 10  1  0  0  0  0
  9  8  1  0  0  0  0
 10  5  1  0  0  0  0
 11  1  1  0  0  0  0
 12 13  1  0  0  0  0
 14 13  2  0  0  0  0
 15 14  1  0  0  0  0
 16 15  2  0  0  0  0
 17 16  1  0  0  0  0
 18 17  2  0  0  0  0
 18 19  1  0  0  0  0
 19 20  2  0  0  0  0
 20 15  1  0  0  0  0
 20 21  1  0  0  0  0
 21 12  2  0  0  0  0
 23 22  1  0  0  0  0
 24 25  1  0  0  0  0
 27 26  1  0  0  0  0
 29 30  1  0  0  0  0
 29 28  1  0  0  0  0
M  END
>  <minimizedAffinity>
-8.08545589

$$$$

 OpenBabel12271915453D

 30 33  0  0  1  0  0  0  0  0999 V2000
   24.7820  -11.8490   -0.6630 C   0  0  1  0  0  0  0  0  0  0  0  0
   26.0710  -12.4290   -0.7090 N   0  0  0  0  0  0  0  0  0  0  0  0
   26.2740  -12.7930   -1.6600 H   0  0  0  0  0  0  0  0  0  0  0  0
   26.9440  -11.2630   -0.6520 O   0  0  0  0  0  0  0  0  0  0  0  0
   26.3210  -10.2360   -1.4090 C   0  0  2  0  0  0  0  0  0  0  0  0
   27.1550  -10.1400   -2.6990 C   0  0  1  0  0  0  0  0  0  0  0  0
   28.4140   -9.3780   -2.4030 C   0  0  2  0  0  0  0  0  0  0  0  0
   28.0040   -7.9290   -2.0860 C   0  0  1  0  0  0  0  0  0  0  0  0
   26.8260   -7.8290   -1.0670 C   0  0  2  0  0  0  0  0  0  0  0  0
   26.3070   -9.0640   -0.6030 O   0  0  0  0  0  0  0  0  0  0  0  0
   24.9130  -10.6820   -1.6190 C   0  0  0  0  0  0  0  0  0  0  0  0
   23.6620  -12.8090   -0.9820 C   0  0  0  0  0  0  0  0  0  0  0  0
   23.8370  -14.1100   -1.4150 C   0  0  0  0  0  0  0  0  0  0  0  0
   22.7430  -14.9430   -1.6530 C   0  0  0  0  0  0  0  0  0  0  0  0
   21.4350  -14.4270   -1.4700 C   0  0  0  0  0  0  0  0  0  0  0  0
   20.3070  -15.2340   -1.6930 C   0  0  0  0  0  0  0  0  0  0  0  0
   19.0300  -14.6940   -1.5060 C   0  0  0  0  0  0  0  0  0  0  0  0
   18.8560  -13.3820   -1.0910 C   0  0  0  0  0  0  0  0  0  0  0  0
   19.9710  -12.5750   -0.8630 C   0  0  0  0  0  0  0  0  0  0  0  0
   21.2580  -13.1130   -1.0640 C   0  0  0  0  0  0  0  0  0  0  0  0
   22.3550  -12.2970   -0.8360 C   0  0  0  0  0  0  0  0  0  0  0  0
   29.3110   -9.4080   -3.5100 O   0  0  0  0  0  0  0  0  0  0  0  0
   28.8580   -9.8640   -4.2670 H   0  0  0  0  0  0  0  0  0  0  0  0
   27.4950  -11.4330   -3.2940 O   0  0  0  0  0  0  0  0  0  0  0  0
   28.2830  -11.7570   -2.8120 H   0  0  0  0  0  0  0  0  0  0  0  0
   29.1710   -7.2300   -1.6160 O   0  0  0  0  0  0  0  0  0  0  0  0
   28.8840   -6.5110   -0.9750 H   0  0  0  0  0  0  0  0  0  0  0  0
   25.6960   -6.9430   -1.6010 C   0  0  0  0  0  0  0  0  0  0  0  0
   24.4690   -7.1920   -0.9360 O   0  0  0  0  0  0  0  0  0  0  0  0
   24.0530   -7.9730   -1.3500 H   0  0  0  0  0  0  0  0  0  0  0  0
  1 12  1  6  0  0  0
  2  1  1  0  0  0  0
  2  4  1  0  0  0  0
  3  2  1  0  0  0  0
  5 11  1  6  0  0  0
  5  4  1  0  0  0  0
  5 10  1  0  0  0  0
  6  7  1  0  0  0  0
  6  5  1  1  0  0  0
  7 22  1  6  0  0  0
  7  8  1  0  0  0  0
  8 26  1  1  0  0  0
  8  9  1  0  0  0  0
  9 28  1  6  0  0  0
  9 10  1  0  0  0  0
 11  1  1  0  0  0  0
 12 21  1  0  0  0  0
 13 12  2  0  0  0  0
 14 15  2  0  0  0  0
 14 13  1  0  0  0  0
 15 20  1  0  0  0  0
 16 17  2  0  0  0  0
 16 15  1  0  0  0  0
 17 18  1  0  0  0  0
 18 19  2  0  0  0  0
 20 19  1  0  0  0  0
 20 21  2  0  0  0  0
 23 22  1  0  0  0  0
 24 25  1  0  0  0  0
 24  6  1  0  0  0  0
 26 27  1  0  0  0  0
 28 29  1  0  0  0  0
 30 29  1  0  0  0  0
M  END
>  <minimizedAffinity>
-8.08270645

$$$$

 OpenBabel12271915453D

 30 33  0  0  1  0  0  0  0  0999 V2000
   22.2170  -12.6430   -1.3960 C   0  0  1  0  0  0  0  0  0  0  0  0
   21.3680  -11.7410   -0.7150 N   0  0  0  0  0  0  0  0  0  0  0  0
   21.1280  -10.9340   -1.3230 H   0  0  0  0  0  0  0  0  0  0  0  0
   20.1020  -12.4630   -0.6800 O   0  0  0  0  0  0  0  0  0  0  0  0
   19.9820  -13.1580   -1.9140 C   0  0  2  0  0  0  0  0  0  0  0  0
   18.9100  -12.3790   -2.6970 C   0  0  1  0  0  0  0  0  0  0  0  0
   17.5570  -12.7590   -2.1700 C   0  0  2  0  0  0  0  0  0  0  0  0
   17.3240  -14.2350   -2.5360 C   0  0  1  0  0  0  0  0  0  0  0  0
   18.5340  -15.1570   -2.1880 C   0  0  2  0  0  0  0  0  0  0  0  0
   19.6560  -14.5080   -1.6100 O   0  0  0  0  0  0  0  0  0  0  0  0
   21.3390  -13.1260   -2.5310 C   0  0  0  0  0  0  0  0  0  0  0  0
   23.5350  -12.0450   -1.8230 C   0  0  0  0  0  0  0  0  0  0  0  0
   23.8480  -11.6640   -3.1140 C   0  0  0  0  0  0  0  0  0  0  0  0
   25.0820  -11.0850   -3.4140 C   0  0  0  0  0  0  0  0  0  0  0  0
   26.0320  -10.9140   -2.3750 C   0  0  0  0  0  0  0  0  0  0  0  0
   27.2830  -10.3300   -2.6350 C   0  0  0  0  0  0  0  0  0  0  0  0
   28.1980  -10.1780   -1.5890 C   0  0  0  0  0  0  0  0  0  0  0  0
   27.8900  -10.5810   -0.2970 C   0  0  0  0  0  0  0  0  0  0  0  0
   26.6480  -11.1580   -0.0300 C   0  0  0  0  0  0  0  0  0  0  0  0
   25.7300  -11.3230   -1.0860 C   0  0  0  0  0  0  0  0  0  0  0  0
   24.5010  -11.9020   -0.8040 C   0  0  0  0  0  0  0  0  0  0  0  0
   16.5330  -11.9420   -2.7300 O   0  0  0  0  0  0  0  0  0  0  0  0
   16.9440  -11.3520   -3.4160 H   0  0  0  0  0  0  0  0  0  0  0  0
   19.0640  -10.9250   -2.6470 O   0  0  0  0  0  0  0  0  0  0  0  0
   18.6550  -10.6350   -1.8060 H   0  0  0  0  0  0  0  0  0  0  0  0
   16.1210  -14.6710   -1.8770 O   0  0  0  0  0  0  0  0  0  0  0  0
   16.1950  -15.6550   -1.6820 H   0  0  0  0  0  0  0  0  0  0  0  0
   18.9670  -15.9940   -3.3960 C   0  0  0  0  0  0  0  0  0  0  0  0
   17.8990  -16.7690   -3.9130 O   0  0  0  0  0  0  0  0  0  0  0  0
   17.8250  -17.5810   -3.3760 H   0  0  0  0  0  0  0  0  0  0  0  0
  1 12  1  6  0  0  0
  1  2  1  0  0  0  0
  2  4  1  0  0  0  0
  3  2  1  0  0  0  0
  5 11  1  6  0  0  0
  5 10  1  0  0  0  0
  5  4  1  0  0  0  0
  6 24  1  0  0  0  0
  6  7  1  0  0  0  0
  6  5  1  1  0  0  0
  7 22  1  6  0  0  0
  8  9  1  0  0  0  0
  8  7  1  0  0  0  0
  8 26  1  1  0  0  0
  9 28  1  6  0  0  0
  9 10  1  0  0  0  0
 11  1  1  0  0  0  0
 12 21  2  0  0  0  0
 13 12  1  0  0  0  0
 14 13  2  0  0  0  0
 14 15  1  0  0  0  0
 15 20  1  0  0  0  0
 16 15  2  0  0  0  0
 16 17  1  0  0  0  0
 17 18  2  0  0  0  0
 18 19  1  0  0  0  0
 20 21  1  0  0  0  0
 20 19  2  0  0  0  0
 23 22  1  0  0  0  0
 24 25  1  0  0  0  0
 26 27  1  0  0  0  0
 29 28  1  0  0  0  0
 29 30  1  0  0  0  0
M  END
>  <minimizedAffinity>
-7.94627714

$$$$

 OpenBabel12271915453D

 30 33  0  0  1  0  0  0  0  0999 V2000
   25.8270  -11.0640   -0.6250 C   0  0  1  0  0  0  0  0  0  0  0  0
   27.1520  -11.5500   -0.5380 N   0  0  0  0  0  0  0  0  0  0  0  0
   27.3910  -12.1120   -1.3780 H   0  0  0  0  0  0  0  0  0  0  0  0
   27.9450  -10.3470   -0.7590 O   0  0  0  0  0  0  0  0  0  0  0  0
   27.2630   -9.5690   -1.7330 C   0  0  2  0  0  0  0  0  0  0  0  0
   28.1060   -9.7210   -3.0120 C   0  0  1  0  0  0  0  0  0  0  0  0
   29.3060   -8.8260   -2.9070 C   0  0  2  0  0  0  0  0  0  0  0  0
   28.7970   -7.3750   -2.9370 C   0  0  1  0  0  0  0  0  0  0  0  0
   27.6020   -7.1200   -1.9650 C   0  0  2  0  0  0  0  0  0  0  0  0
   27.1610   -8.2450   -1.2230 O   0  0  0  0  0  0  0  0  0  0  0  0
   25.8920  -10.1470   -1.8270 C   0  0  0  0  0  0  0  0  0  0  0  0
   24.7780  -12.1460   -0.7070 C   0  0  0  0  0  0  0  0  0  0  0  0
   25.0460  -13.5000   -0.7980 C   0  0  0  0  0  0  0  0  0  0  0  0
   24.0120  -14.4370   -0.8340 C   0  0  0  0  0  0  0  0  0  0  0  0
   22.6700  -13.9810   -0.8000 C   0  0  0  0  0  0  0  0  0  0  0  0
   21.6010  -14.8920   -0.8280 C   0  0  0  0  0  0  0  0  0  0  0  0
   20.2890  -14.4090   -0.7970 C   0  0  0  0  0  0  0  0  0  0  0  0
   20.0220  -13.0490   -0.7260 C   0  0  0  0  0  0  0  0  0  0  0  0
   21.0780  -12.1380   -0.6930 C   0  0  0  0  0  0  0  0  0  0  0  0
   22.4000  -12.6220   -0.7380 C   0  0  0  0  0  0  0  0  0  0  0  0
   23.4390  -11.7030   -0.7090 C   0  0  0  0  0  0  0  0  0  0  0  0
   30.2180   -9.0530   -3.9790 O   0  0  0  0  0  0  0  0  0  0  0  0
   29.8060   -9.7030   -4.6070 H   0  0  0  0  0  0  0  0  0  0  0  0
   28.5390  -11.0900   -3.2890 O   0  0  0  0  0  0  0  0  0  0  0  0
   29.3410  -11.2390   -2.7480 H   0  0  0  0  0  0  0  0  0  0  0  0
   29.9080   -6.5080   -2.6470 O   0  0  0  0  0  0  0  0  0  0  0  0
   29.5650   -5.6800   -2.1910 H   0  0  0  0  0  0  0  0  0  0  0  0
   26.4220   -6.4630   -2.6880 C   0  0  0  0  0  0  0  0  0  0  0  0
   26.2770   -6.9460   -4.0130 O   0  0  0  0  0  0  0  0  0  0  0  0
   26.9000   -6.4560   -4.5840 H   0  0  0  0  0  0  0  0  0  0  0  0
  1 12  1  6  0  0  0
  1  2  1  0  0  0  0
  3  2  1  0  0  0  0
  4  2  1  0  0  0  0
  5 11  1  6  0  0  0
  5 10  1  0  0  0  0
  5  4  1  0  0  0  0
  6  7  1  0  0  0  0
  6  5  1  1  0  0  0
  7 22  1  6  0  0  0
  8  7  1  0  0  0  0
  8 26  1  1  0  0  0
  8  9  1  0  0  0  0
  9 28  1  6  0  0  0
  9 10  1  0  0  0  0
 11  1  1  0  0  0  0
 13 12  2  0  0  0  0
 14 15  2  0  0  0  0
 14 13  1  0  0  0  0
 15 20  1  0  0  0  0
 16 15  1  0  0  0  0
 16 17  2  0  0  0  0
 17 18  1  0  0  0  0
 18 19  2  0  0  0  0
 20 21  2  0  0  0  0
 20 19  1  0  0  0  0
 21 12  1  0  0  0  0
 23 22  1  0  0  0  0
 24  6  1  0  0  0  0
 24 25  1  0  0  0  0
 26 27  1  0  0  0  0
 29 28  1  0  0  0  0
 30 29  1  0  0  0  0
M  END
>  <minimizedAffinity>
-7.90205956

$$$$
