
 OpenBabel12271915413D

 32 35  0  0  1  0  0  0  0  0999 V2000
   22.1880  -13.0160   -0.6520 C   0  0  0  0  0  0  0  0  0  0  0  0
   20.9320  -13.3360   -1.1550 C   0  0  0  0  0  0  0  0  0  0  0  0
   20.6430  -14.5520   -1.7520 C   0  0  0  0  0  0  0  0  0  0  0  0
   21.7280  -15.4240   -1.8660 C   0  0  0  0  0  0  0  0  0  0  0  0
   22.9820  -15.1640   -1.4060 N   0  0  0  0  0  0  0  0  0  0  0  0
   23.1900  -13.9770   -0.7740 C   0  0  0  0  0  0  0  0  0  0  0  0
   19.2810  -14.8640   -2.2160 C   0  0  0  0  0  0  0  0  0  0  0  0
   18.1800  -14.1090   -1.7920 C   0  0  0  0  0  0  0  0  0  0  0  0
   16.8710  -14.3530   -2.2260 C   0  0  0  0  0  0  0  0  0  0  0  0
   16.6850  -15.4160   -3.1030 C   0  0  0  0  0  0  0  0  0  0  0  0
   15.5610  -15.9320   -3.6950 N   0  0  0  0  0  0  0  0  0  0  0  0
   14.6040  -15.6220   -3.6090 H   0  0  0  0  0  0  0  0  0  0  0  0
   15.8150  -16.9730   -4.4890 N   0  0  0  0  0  0  0  0  0  0  0  0
   17.1350  -17.1450   -4.4120 C   0  0  0  0  0  0  0  0  0  0  0  0
   17.8200  -18.2200   -5.1770 C   0  0  0  0  0  0  0  0  0  0  0  0
   17.7340  -16.1910   -3.5500 C   0  0  0  0  0  0  0  0  0  0  0  0
   19.0420  -15.9170   -3.1140 C   0  0  0  0  0  0  0  0  0  0  0  0
   22.2330  -11.7490   -0.1790 O   0  0  0  0  0  0  0  0  0  0  0  0
   22.2950  -10.6140   -1.0190 C   0  0  0  0  0  0  0  0  0  0  0  0
   23.6540  -10.4890   -1.7270 C   0  0  1  0  0  0  0  0  0  0  0  0
   23.4170  -10.0360   -3.1510 N   0  0  0  0  0  0  0  0  0  0  0  0
   23.0090   -9.0950   -3.2070 H   0  0  0  0  0  0  0  0  0  0  0  0
   22.7590  -10.6710   -3.6330 H   0  0  0  0  0  0  0  0  0  0  0  0
   24.2880  -10.0610   -3.7030 H   0  0  0  0  0  0  0  0  0  0  0  0
   24.5320   -9.4790   -0.9830 C   0  0  0  0  0  0  0  0  0  0  0  0
   25.8160  -10.0660   -0.4680 C   0  0  0  0  0  0  0  0  0  0  0  0
   26.8860   -9.2320   -0.1260 C   0  0  0  0  0  0  0  0  0  0  0  0
   28.0810   -9.7840    0.3270 C   0  0  0  0  0  0  0  0  0  0  0  0
   28.2100  -11.1660    0.4590 C   0  0  0  0  0  0  0  0  0  0  0  0
   29.8300  -11.9110    1.0620 Br  0  0  0  0  0  0  0  0  0  0  0  0
   27.1470  -12.0000    0.1330 C   0  0  0  0  0  0  0  0  0  0  0  0
   25.9560  -11.4550   -0.3350 C   0  0  0  0  0  0  0  0  0  0  0  0
  1 18  1  0  0  0  0
  2  1  2  0  0  0  0
  3  2  1  0  0  0  0
  4  3  2  0  0  0  0
  4  5  1  0  0  0  0
  5  6  2  0  0  0  0
  6  1  1  0  0  0  0
  7  8  2  0  0  0  0
  7  3  1  0  0  0  0
  9  8  1  0  0  0  0
 10  9  2  0  0  0  0
 11 12  1  0  0  0  0
 11 10  1  0  0  0  0
 13 14  2  0  0  0  0
 13 11  1  0  0  0  0
 14 16  1  0  0  0  0
 15 14  1  0  0  0  0
 16 17  2  0  0  0  0
 16 10  1  0  0  0  0
 17  7  1  0  0  0  0
 19 18  1  0  0  0  0
 20 19  1  1  0  0  0
 20 25  1  0  0  0  0
 21 20  1  0  0  0  0
 22 21  1  0  0  0  0
 23 21  1  0  0  0  0
 24 21  1  0  0  0  0
 25 26  1  0  0  0  0
 26 32  2  0  0  0  0
 26 27  1  0  0  0  0
 27 28  2  0  0  0  0
 28 29  1  0  0  0  0
 29 30  1  0  0  0  0
 31 29  2  0  0  0  0
 32 31  1  0  0  0  0
M  END
>  <minimizedAffinity>
-9.46068859

$$$$

 OpenBabel12271915413D

 32 35  0  0  1  0  0  0  0  0999 V2000
   22.7670  -13.5810   -0.7310 C   0  0  0  0  0  0  0  0  0  0  0  0
   21.4480  -13.7580   -1.1340 C   0  0  0  0  0  0  0  0  0  0  0  0
   21.0480  -14.7690   -1.9930 C   0  0  0  0  0  0  0  0  0  0  0  0
   22.0820  -15.5720   -2.4770 C   0  0  0  0  0  0  0  0  0  0  0  0
   23.3920  -15.4420   -2.1310 N   0  0  0  0  0  0  0  0  0  0  0  0
   23.7150  -14.4690   -1.2360 C   0  0  0  0  0  0  0  0  0  0  0  0
   19.6300  -14.9490   -2.3430 C   0  0  0  0  0  0  0  0  0  0  0  0
   18.6470  -14.0750   -1.8600 C   0  0  0  0  0  0  0  0  0  0  0  0
   17.2900  -14.1920   -2.1860 C   0  0  0  0  0  0  0  0  0  0  0  0
   16.9300  -15.2500   -3.0140 C   0  0  0  0  0  0  0  0  0  0  0  0
   15.7170  -15.6610   -3.5040 N   0  0  0  0  0  0  0  0  0  0  0  0
   14.8050  -15.2520   -3.3560 H   0  0  0  0  0  0  0  0  0  0  0  0
   15.8010  -16.7400   -4.2830 N   0  0  0  0  0  0  0  0  0  0  0  0
   17.0990  -17.0440   -4.3020 C   0  0  0  0  0  0  0  0  0  0  0  0
   17.6100  -18.2010   -5.0840 C   0  0  0  0  0  0  0  0  0  0  0  0
   17.8570  -16.1390   -3.5160 C   0  0  0  0  0  0  0  0  0  0  0  0
   19.2160  -15.9910   -3.1880 C   0  0  0  0  0  0  0  0  0  0  0  0
   22.9100  -12.4900    0.0550 O   0  0  0  0  0  0  0  0  0  0  0  0
   24.0040  -11.6010   -0.0500 C   0  0  0  0  0  0  0  0  0  0  0  0
   23.5600  -10.1740   -0.4110 C   0  0  1  0  0  0  0  0  0  0  0  0
   24.7380   -9.2410   -0.2330 N   0  0  0  0  0  0  0  0  0  0  0  0
   25.5090   -9.4450   -0.8810 H   0  0  0  0  0  0  0  0  0  0  0  0
   25.1270   -9.3210    0.7210 H   0  0  0  0  0  0  0  0  0  0  0  0
   24.4550   -8.2560   -0.3400 H   0  0  0  0  0  0  0  0  0  0  0  0
   23.0650  -10.1400   -1.8600 C   0  0  0  0  0  0  0  0  0  0  0  0
   21.5690  -10.2170   -1.9850 C   0  0  0  0  0  0  0  0  0  0  0  0
   20.9830  -10.6950   -3.1620 C   0  0  0  0  0  0  0  0  0  0  0  0
   19.5960  -10.7400   -3.2790 C   0  0  0  0  0  0  0  0  0  0  0  0
   18.7880  -10.3270   -2.2200 C   0  0  0  0  0  0  0  0  0  0  0  0
   16.9140  -10.3790   -2.3860 Br  0  0  0  0  0  0  0  0  0  0  0  0
   19.3640   -9.8630   -1.0440 C   0  0  0  0  0  0  0  0  0  0  0  0
   20.7490   -9.8010   -0.9270 C   0  0  0  0  0  0  0  0  0  0  0  0
  1 18  1  0  0  0  0
  2  1  1  0  0  0  0
  3  2  2  0  0  0  0
  4  5  2  0  0  0  0
  4  3  1  0  0  0  0
  5  6  1  0  0  0  0
  6  1  2  0  0  0  0
  7  3  1  0  0  0  0
  7  8  2  0  0  0  0
  9  8  1  0  0  0  0
 10  9  2  0  0  0  0
 11 12  1  0  0  0  0
 11 10  1  0  0  0  0
 13 11  1  0  0  0  0
 14 13  2  0  0  0  0
 14 16  1  0  0  0  0
 15 14  1  0  0  0  0
 16 17  2  0  0  0  0
 16 10  1  0  0  0  0
 17  7  1  0  0  0  0
 19 18  1  0  0  0  0
 20 25  1  6  0  0  0
 20 21  1  0  0  0  0
 20 19  1  0  0  0  0
 21 23  1  0  0  0  0
 22 21  1  0  0  0  0
 24 21  1  0  0  0  0
 26 25  1  0  0  0  0
 26 32  2  0  0  0  0
 27 26  1  0  0  0  0
 28 27  2  0  0  0  0
 28 29  1  0  0  0  0
 29 31  2  0  0  0  0
 30 29  1  0  0  0  0
 31 32  1  0  0  0  0
M  END
>  <minimizedAffinity>
-9.33562183

$$$$

 OpenBabel12271915413D

 32 35  0  0  1  0  0  0  0  0999 V2000
   22.4830  -13.1320   -0.8050 C   0  0  0  0  0  0  0  0  0  0  0  0
   21.1980  -13.3970   -1.2640 C   0  0  0  0  0  0  0  0  0  0  0  0
   20.8560  -14.5640   -1.9280 C   0  0  0  0  0  0  0  0  0  0  0  0
   21.9180  -15.4420   -2.1580 C   0  0  0  0  0  0  0  0  0  0  0  0
   23.1980  -15.2340   -1.7470 N   0  0  0  0  0  0  0  0  0  0  0  0
   23.4600  -14.0980   -1.0460 C   0  0  0  0  0  0  0  0  0  0  0  0
   19.4670  -14.8230   -2.3420 C   0  0  0  0  0  0  0  0  0  0  0  0
   18.4220  -13.9840   -1.9350 C   0  0  0  0  0  0  0  0  0  0  0  0
   17.0900  -14.1760   -2.3230 C   0  0  0  0  0  0  0  0  0  0  0  0
   16.8220  -15.2720   -3.1360 C   0  0  0  0  0  0  0  0  0  0  0  0
   15.6550  -15.7550   -3.6720 N   0  0  0  0  0  0  0  0  0  0  0  0
   14.7200  -15.3870   -3.5810 H   0  0  0  0  0  0  0  0  0  0  0  0
   15.8300  -16.8490   -4.4140 N   0  0  0  0  0  0  0  0  0  0  0  0
   17.1400  -17.0910   -4.3590 C   0  0  0  0  0  0  0  0  0  0  0  0
   17.7440  -18.2430   -5.0800 C   0  0  0  0  0  0  0  0  0  0  0  0
   17.8140  -16.1290   -3.5640 C   0  0  0  0  0  0  0  0  0  0  0  0
   19.1460  -15.9060   -3.1750 C   0  0  0  0  0  0  0  0  0  0  0  0
   22.5750  -11.9030   -0.2490 O   0  0  0  0  0  0  0  0  0  0  0  0
   23.8060  -11.2460   -0.0270 C   0  0  0  0  0  0  0  0  0  0  0  0
   23.9310   -9.9540   -0.8500 C   0  0  1  0  0  0  0  0  0  0  0  0
   25.1140   -9.1640   -0.3340 N   0  0  0  0  0  0  0  0  0  0  0  0
   26.0090   -9.6480   -0.4740 H   0  0  0  0  0  0  0  0  0  0  0  0
   25.0280   -8.9970    0.6830 H   0  0  0  0  0  0  0  0  0  0  0  0
   25.1610   -8.2300   -0.7690 H   0  0  0  0  0  0  0  0  0  0  0  0
   24.1250  -10.3010   -2.3290 C   0  0  0  0  0  0  0  0  0  0  0  0
   22.9580   -9.9120   -3.1940 C   0  0  0  0  0  0  0  0  0  0  0  0
   22.1680  -10.8980   -3.7970 C   0  0  0  0  0  0  0  0  0  0  0  0
   21.1040  -10.5290   -4.6170 C   0  0  0  0  0  0  0  0  0  0  0  0
   20.8120   -9.1820   -4.8240 C   0  0  0  0  0  0  0  0  0  0  0  0
   19.3810   -8.6870   -5.9420 Br  0  0  0  0  0  0  0  0  0  0  0  0
   21.5860   -8.1990   -4.2190 C   0  0  0  0  0  0  0  0  0  0  0  0
   22.6600   -8.5600   -3.4120 C   0  0  0  0  0  0  0  0  0  0  0  0
  1 18  1  0  0  0  0
  2  1  2  0  0  0  0
  3  2  1  0  0  0  0
  4  3  2  0  0  0  0
  4  5  1  0  0  0  0
  5  6  2  0  0  0  0
  6  1  1  0  0  0  0
  7  8  2  0  0  0  0
  7  3  1  0  0  0  0
  9  8  1  0  0  0  0
 10  9  2  0  0  0  0
 11 12  1  0  0  0  0
 11 10  1  0  0  0  0
 13 14  2  0  0  0  0
 13 11  1  0  0  0  0
 14 16  1  0  0  0  0
 15 14  1  0  0  0  0
 16 17  2  0  0  0  0
 16 10  1  0  0  0  0
 17  7  1  0  0  0  0
 18 19  1  0  0  0  0
 20 25  1  6  0  0  0
 20 21  1  0  0  0  0
 20 19  1  0  0  0  0
 21 23  1  0  0  0  0
 22 21  1  0  0  0  0
 24 21  1  0  0  0  0
 26 25  1  0  0  0  0
 27 26  2  0  0  0  0
 28 27  1  0  0  0  0
 29 28  2  0  0  0  0
 29 31  1  0  0  0  0
 30 29  1  0  0  0  0
 31 32  2  0  0  0  0
 32 26  1  0  0  0  0
M  END
>  <minimizedAffinity>
-9.20611

$$$$

 OpenBabel12271915413D

 32 35  0  0  1  0  0  0  0  0999 V2000
   24.3410  -12.5900   -0.1140 C   0  0  0  0  0  0  0  0  0  0  0  0
   22.9740  -12.7320   -0.3220 C   0  0  0  0  0  0  0  0  0  0  0  0
   22.4090  -13.8590   -0.8970 C   0  0  0  0  0  0  0  0  0  0  0  0
   23.3230  -14.8290   -1.3110 C   0  0  0  0  0  0  0  0  0  0  0  0
   24.6720  -14.7430   -1.1480 N   0  0  0  0  0  0  0  0  0  0  0  0
   25.1630  -13.6400   -0.5210 C   0  0  0  0  0  0  0  0  0  0  0  0
   20.9490  -13.9850   -1.0420 C   0  0  0  0  0  0  0  0  0  0  0  0
   20.0740  -13.2280   -0.2520 C   0  0  0  0  0  0  0  0  0  0  0  0
   18.6810  -13.2960   -0.3720 C   0  0  0  0  0  0  0  0  0  0  0  0
   18.1710  -14.1820   -1.3140 C   0  0  0  0  0  0  0  0  0  0  0  0
   16.8870  -14.5070   -1.6700 N   0  0  0  0  0  0  0  0  0  0  0  0
   16.0200  -14.1430   -1.3030 H   0  0  0  0  0  0  0  0  0  0  0  0
   16.8240  -15.4190   -2.6410 N   0  0  0  0  0  0  0  0  0  0  0  0
   18.0960  -15.7010   -2.9250 C   0  0  0  0  0  0  0  0  0  0  0  0
   18.4520  -16.6840   -3.9810 C   0  0  0  0  0  0  0  0  0  0  0  0
   18.9880  -14.9510   -2.1160 C   0  0  0  0  0  0  0  0  0  0  0  0
   20.3840  -14.8540   -1.9890 C   0  0  0  0  0  0  0  0  0  0  0  0
   24.6480  -11.3780    0.4020 O   0  0  0  0  0  0  0  0  0  0  0  0
   25.4870  -10.4490   -0.2550 C   0  0  0  0  0  0  0  0  0  0  0  0
   24.6880   -9.3320   -0.9450 C   0  0  1  0  0  0  0  0  0  0  0  0
   25.5430   -8.0850   -0.9940 N   0  0  0  0  0  0  0  0  0  0  0  0
   26.3820   -8.2000   -1.5750 H   0  0  0  0  0  0  0  0  0  0  0  0
   25.8740   -7.8300   -0.0480 H   0  0  0  0  0  0  0  0  0  0  0  0
   25.0040   -7.2730   -1.3320 H   0  0  0  0  0  0  0  0  0  0  0  0
   24.3020   -9.7720   -2.3600 C   0  0  0  0  0  0  0  0  0  0  0  0
   22.8290  -10.0210   -2.5300 C   0  0  0  0  0  0  0  0  0  0  0  0
   21.9090   -9.4380   -1.6520 C   0  0  0  0  0  0  0  0  0  0  0  0
   20.5480   -9.6930   -1.8010 C   0  0  0  0  0  0  0  0  0  0  0  0
   20.0980  -10.5120   -2.8350 C   0  0  0  0  0  0  0  0  0  0  0  0
   18.2580  -10.8640   -3.0280 Br  0  0  0  0  0  0  0  0  0  0  0  0
   21.0050  -11.0840   -3.7180 C   0  0  0  0  0  0  0  0  0  0  0  0
   22.3670  -10.8460   -3.5650 C   0  0  0  0  0  0  0  0  0  0  0  0
  1 18  1  0  0  0  0
  2  1  1  0  0  0  0
  3  2  2  0  0  0  0
  4  5  2  0  0  0  0
  4  3  1  0  0  0  0
  5  6  1  0  0  0  0
  6  1  2  0  0  0  0
  7  3  1  0  0  0  0
  7  8  2  0  0  0  0
  9  8  1  0  0  0  0
 10  9  2  0  0  0  0
 11 10  1  0  0  0  0
 11 12  1  0  0  0  0
 13 11  1  0  0  0  0
 14 13  2  0  0  0  0
 14 16  1  0  0  0  0
 15 14  1  0  0  0  0
 16 17  2  0  0  0  0
 16 10  1  0  0  0  0
 17  7  1  0  0  0  0
 19 18  1  0  0  0  0
 20 25  1  6  0  0  0
 20 19  1  0  0  0  0
 21 20  1  0  0  0  0
 21 23  1  0  0  0  0
 22 21  1  0  0  0  0
 24 21  1  0  0  0  0
 26 25  1  0  0  0  0
 26 27  2  0  0  0  0
 28 27  1  0  0  0  0
 29 28  2  0  0  0  0
 30 29  1  0  0  0  0
 31 32  2  0  0  0  0
 31 29  1  0  0  0  0
 32 26  1  0  0  0  0
M  END
>  <minimizedAffinity>
-9.13983345

$$$$

 OpenBabel12271915413D

 32 35  0  0  1  0  0  0  0  0999 V2000
   22.7470  -12.9610   -1.7850 C   0  0  0  0  0  0  0  0  0  0  0  0
   21.4580  -13.2620   -2.2070 C   0  0  0  0  0  0  0  0  0  0  0  0
   20.8530  -14.4880   -1.9800 C   0  0  0  0  0  0  0  0  0  0  0  0
   21.6590  -15.4310   -1.3390 C   0  0  0  0  0  0  0  0  0  0  0  0
   22.9310  -15.2020   -0.9130 N   0  0  0  0  0  0  0  0  0  0  0  0
   23.4490  -13.9590   -1.1110 C   0  0  0  0  0  0  0  0  0  0  0  0
   19.4630  -14.7370   -2.3970 C   0  0  0  0  0  0  0  0  0  0  0  0
   18.4310  -13.8610   -2.0390 C   0  0  0  0  0  0  0  0  0  0  0  0
   17.1000  -14.0430   -2.4330 C   0  0  0  0  0  0  0  0  0  0  0  0
   16.8170  -15.1680   -3.1990 C   0  0  0  0  0  0  0  0  0  0  0  0
   15.6470  -15.6510   -3.7260 N   0  0  0  0  0  0  0  0  0  0  0  0
   14.7180  -15.2610   -3.6610 H   0  0  0  0  0  0  0  0  0  0  0  0
   15.8060  -16.7810   -4.4160 N   0  0  0  0  0  0  0  0  0  0  0  0
   17.1110  -17.0460   -4.3360 C   0  0  0  0  0  0  0  0  0  0  0  0
   17.6970  -18.2410   -4.9990 C   0  0  0  0  0  0  0  0  0  0  0  0
   17.7960  -16.0630   -3.5780 C   0  0  0  0  0  0  0  0  0  0  0  0
   19.1280  -15.8500   -3.1850 C   0  0  0  0  0  0  0  0  0  0  0  0
   23.1320  -11.7270   -2.1830 O   0  0  0  0  0  0  0  0  0  0  0  0
   23.7290  -11.4720   -3.4380 C   0  0  0  0  0  0  0  0  0  0  0  0
   23.6640   -9.9850   -3.8200 C   0  0  1  0  0  0  0  0  0  0  0  0
   24.8820   -9.6450   -4.6520 N   0  0  0  0  0  0  0  0  0  0  0  0
   24.9020  -10.1430   -5.5500 H   0  0  0  0  0  0  0  0  0  0  0  0
   25.7500   -9.9040   -4.1540 H   0  0  0  0  0  0  0  0  0  0  0  0
   24.9480   -8.6310   -4.8240 H   0  0  0  0  0  0  0  0  0  0  0  0
   22.3830   -9.7110   -4.6120 C   0  0  0  0  0  0  0  0  0  0  0  0
   21.1370   -9.7560   -3.7720 C   0  0  0  0  0  0  0  0  0  0  0  0
   20.0730  -10.5920   -4.1310 C   0  0  0  0  0  0  0  0  0  0  0  0
   18.9130  -10.6100   -3.3610 C   0  0  0  0  0  0  0  0  0  0  0  0
   18.8140   -9.8110   -2.2230 C   0  0  0  0  0  0  0  0  0  0  0  0
   17.2400   -9.8290   -1.1900 Br  0  0  0  0  0  0  0  0  0  0  0  0
   19.8710   -8.9880   -1.8540 C   0  0  0  0  0  0  0  0  0  0  0  0
   21.0260   -8.9540   -2.6280 C   0  0  0  0  0  0  0  0  0  0  0  0
  1  6  2  0  0  0  0
  2  3  2  0  0  0  0
  2  1  1  0  0  0  0
  3  4  1  0  0  0  0
  4  5  2  0  0  0  0
  6  5  1  0  0  0  0
  7  8  1  0  0  0  0
  7  3  1  0  0  0  0
  9  8  2  0  0  0  0
 10  9  1  0  0  0  0
 11 12  1  0  0  0  0
 11 10  1  0  0  0  0
 13 14  2  0  0  0  0
 13 11  1  0  0  0  0
 14 16  1  0  0  0  0
 15 14  1  0  0  0  0
 16 10  2  0  0  0  0
 16 17  1  0  0  0  0
 17  7  2  0  0  0  0
 18  1  1  0  0  0  0
 19 18  1  0  0  0  0
 20 25  1  6  0  0  0
 20 19  1  0  0  0  0
 21 23  1  0  0  0  0
 21 20  1  0  0  0  0
 22 21  1  0  0  0  0
 24 21  1  0  0  0  0
 25 26  1  0  0  0  0
 26 32  1  0  0  0  0
 27 26  2  0  0  0  0
 27 28  1  0  0  0  0
 28 29  2  0  0  0  0
 29 31  1  0  0  0  0
 29 30  1  0  0  0  0
 32 31  2  0  0  0  0
M  END
>  <minimizedAffinity>
-8.87624264

$$$$

 OpenBabel12271915413D

 32 35  0  0  1  0  0  0  0  0999 V2000
   19.8740  -11.3250   -2.6990 C   0  0  0  0  0  0  0  0  0  0  0  0
   21.2330  -11.3070   -2.9940 C   0  0  0  0  0  0  0  0  0  0  0  0
   22.1650  -10.6250   -2.2290 C   0  0  0  0  0  0  0  0  0  0  0  0
   21.6320   -9.9020   -1.1600 C   0  0  0  0  0  0  0  0  0  0  0  0
   20.3120   -9.8690   -0.8280 N   0  0  0  0  0  0  0  0  0  0  0  0
   19.4530  -10.6080   -1.5810 C   0  0  0  0  0  0  0  0  0  0  0  0
   23.6000  -10.6850   -2.5500 C   0  0  0  0  0  0  0  0  0  0  0  0
   24.0450  -11.1430   -3.7970 C   0  0  0  0  0  0  0  0  0  0  0  0
   25.3980  -11.1940   -4.1560 C   0  0  0  0  0  0  0  0  0  0  0  0
   26.3200  -10.7840   -3.2000 C   0  0  0  0  0  0  0  0  0  0  0  0
   27.6900  -10.7250   -3.2110 N   0  0  0  0  0  0  0  0  0  0  0  0
   28.3260  -10.9750   -3.9550 H   0  0  0  0  0  0  0  0  0  0  0  0
   28.2060  -10.2590   -2.0730 N   0  0  0  0  0  0  0  0  0  0  0  0
   27.1510  -10.0110   -1.2980 C   0  0  0  0  0  0  0  0  0  0  0  0
   27.3120   -9.4610    0.0740 C   0  0  0  0  0  0  0  0  0  0  0  0
   25.9350  -10.3260   -1.9580 C   0  0  0  0  0  0  0  0  0  0  0  0
   24.5710  -10.2680   -1.6260 C   0  0  0  0  0  0  0  0  0  0  0  0
   19.1670  -12.0050   -3.6300 O   0  0  0  0  0  0  0  0  0  0  0  0
   19.2010  -13.4130   -3.7500 C   0  0  0  0  0  0  0  0  0  0  0  0
   18.5270  -14.1130   -2.5590 C   0  0  1  0  0  0  0  0  0  0  0  0
   17.1680  -14.6140   -2.9980 N   0  0  0  0  0  0  0  0  0  0  0  0
   17.2260  -15.3370   -3.7250 H   0  0  0  0  0  0  0  0  0  0  0  0
   16.6050  -13.8440   -3.3950 H   0  0  0  0  0  0  0  0  0  0  0  0
   16.6260  -14.9770   -2.2000 H   0  0  0  0  0  0  0  0  0  0  0  0
   19.3990  -15.2790   -2.0850 C   0  0  0  0  0  0  0  0  0  0  0  0
   20.7940  -14.8690   -1.7050 C   0  0  0  0  0  0  0  0  0  0  0  0
   21.8870  -15.2870   -2.4730 C   0  0  0  0  0  0  0  0  0  0  0  0
   23.1780  -14.9230   -2.1000 C   0  0  0  0  0  0  0  0  0  0  0  0
   23.3860  -14.1280   -0.9730 C   0  0  0  0  0  0  0  0  0  0  0  0
   25.1330  -13.6480   -0.4650 Br  0  0  0  0  0  0  0  0  0  0  0  0
   22.3040  -13.7000   -0.2130 C   0  0  0  0  0  0  0  0  0  0  0  0
   21.0130  -14.0740   -0.5710 C   0  0  0  0  0  0  0  0  0  0  0  0
  1  6  1  0  0  0  0
  2  1  2  0  0  0  0
  2  3  1  0  0  0  0
  3  4  2  0  0  0  0
  4  5  1  0  0  0  0
  6  5  2  0  0  0  0
  7  3  1  0  0  0  0
  7 17  2  0  0  0  0
  8  7  1  0  0  0  0
  9  8  2  0  0  0  0
  9 10  1  0  0  0  0
 10 16  2  0  0  0  0
 11 10  1  0  0  0  0
 11 13  1  0  0  0  0
 12 11  1  0  0  0  0
 13 14  2  0  0  0  0
 14 15  1  0  0  0  0
 16 17  1  0  0  0  0
 16 14  1  0  0  0  0
 18  1  1  0  0  0  0
 19 18  1  0  0  0  0
 20 19  1  6  0  0  0
 20 25  1  0  0  0  0
 21 20  1  0  0  0  0
 21 24  1  0  0  0  0
 22 21  1  0  0  0  0
 23 21  1  0  0  0  0
 25 26  1  0  0  0  0
 26 32  2  0  0  0  0
 27 28  2  0  0  0  0
 27 26  1  0  0  0  0
 28 29  1  0  0  0  0
 29 30  1  0  0  0  0
 29 31  2  0  0  0  0
 32 31  1  0  0  0  0
M  END
>  <minimizedAffinity>
-8.82088757

$$$$

 OpenBabel12271915413D

 32 35  0  0  1  0  0  0  0  0999 V2000
   18.3130  -11.3510   -2.3020 C   0  0  0  0  0  0  0  0  0  0  0  0
   19.6920  -11.1990   -2.2090 C   0  0  0  0  0  0  0  0  0  0  0  0
   20.2970  -10.2760   -1.3720 C   0  0  0  0  0  0  0  0  0  0  0  0
   19.4150   -9.4600   -0.6620 C   0  0  0  0  0  0  0  0  0  0  0  0
   18.0590   -9.5500   -0.7200 N   0  0  0  0  0  0  0  0  0  0  0  0
   17.5230  -10.5170   -1.5130 C   0  0  0  0  0  0  0  0  0  0  0  0
   21.7640  -10.1950   -1.2670 C   0  0  0  0  0  0  0  0  0  0  0  0
   22.3850   -9.8380   -0.0640 C   0  0  0  0  0  0  0  0  0  0  0  0
   23.7760   -9.7720    0.0900 C   0  0  0  0  0  0  0  0  0  0  0  0
   24.5490  -10.0610   -1.0290 C   0  0  0  0  0  0  0  0  0  0  0  0
   25.9050  -10.0730   -1.2310 N   0  0  0  0  0  0  0  0  0  0  0  0
   26.6420   -9.8690   -0.5720 H   0  0  0  0  0  0  0  0  0  0  0  0
   26.2500  -10.4150   -2.4730 N   0  0  0  0  0  0  0  0  0  0  0  0
   25.0920  -10.6280   -3.1000 C   0  0  0  0  0  0  0  0  0  0  0  0
   25.0530  -11.0450   -4.5270 C   0  0  0  0  0  0  0  0  0  0  0  0
   23.9870  -10.4170   -2.2370 C   0  0  0  0  0  0  0  0  0  0  0  0
   22.5890  -10.4930   -2.3630 C   0  0  0  0  0  0  0  0  0  0  0  0
   17.9700  -12.2700   -3.2340 O   0  0  0  0  0  0  0  0  0  0  0  0
   18.6670  -13.4870   -3.4110 C   0  0  0  0  0  0  0  0  0  0  0  0
   18.2900  -14.5310   -2.3470 C   0  0  1  0  0  0  0  0  0  0  0  0
   16.9410  -15.1180   -2.7020 N   0  0  0  0  0  0  0  0  0  0  0  0
   16.9540  -15.6410   -3.5850 H   0  0  0  0  0  0  0  0  0  0  0  0
   16.2340  -14.3710   -2.8140 H   0  0  0  0  0  0  0  0  0  0  0  0
   16.5870  -15.7280   -1.9500 H   0  0  0  0  0  0  0  0  0  0  0  0
   19.3550  -15.6290   -2.3010 C   0  0  0  0  0  0  0  0  0  0  0  0
   20.7010  -15.1410   -1.8410 C   0  0  0  0  0  0  0  0  0  0  0  0
   20.8140  -14.3880   -0.6670 C   0  0  0  0  0  0  0  0  0  0  0  0
   22.0610  -13.9190   -0.2610 C   0  0  0  0  0  0  0  0  0  0  0  0
   23.2000  -14.2120   -1.0100 C   0  0  0  0  0  0  0  0  0  0  0  0
   24.8820  -13.5670   -0.4640 Br  0  0  0  0  0  0  0  0  0  0  0  0
   23.0950  -14.9700   -2.1700 C   0  0  0  0  0  0  0  0  0  0  0  0
   21.8510  -15.4280   -2.5900 C   0  0  0  0  0  0  0  0  0  0  0  0
  1  2  2  0  0  0  0
  1  6  1  0  0  0  0
  2  3  1  0  0  0  0
  3  7  1  0  0  0  0
  3  4  2  0  0  0  0
  5  4  1  0  0  0  0
  6  5  2  0  0  0  0
  7  8  2  0  0  0  0
  8  9  1  0  0  0  0
 10  9  2  0  0  0  0
 11 10  1  0  0  0  0
 11 12  1  0  0  0  0
 13 11  1  0  0  0  0
 14 13  2  0  0  0  0
 14 16  1  0  0  0  0
 15 14  1  0  0  0  0
 16 10  1  0  0  0  0
 17 16  2  0  0  0  0
 17  7  1  0  0  0  0
 18  1  1  0  0  0  0
 19 18  1  0  0  0  0
 20 19  1  6  0  0  0
 20 25  1  0  0  0  0
 21 20  1  0  0  0  0
 21 24  1  0  0  0  0
 22 21  1  0  0  0  0
 23 21  1  0  0  0  0
 25 26  1  0  0  0  0
 26 27  2  0  0  0  0
 27 28  1  0  0  0  0
 29 30  1  0  0  0  0
 29 28  2  0  0  0  0
 31 29  1  0  0  0  0
 32 31  2  0  0  0  0
 32 26  1  0  0  0  0
M  END
>  <minimizedAffinity>
-8.81165218

$$$$

 OpenBabel12271915413D

 32 35  0  0  1  0  0  0  0  0999 V2000
   21.6190  -12.7750   -0.7820 C   0  0  0  0  0  0  0  0  0  0  0  0
   22.6930  -11.9110   -0.5950 C   0  0  0  0  0  0  0  0  0  0  0  0
   24.0140  -12.3190   -0.6710 C   0  0  0  0  0  0  0  0  0  0  0  0
   24.1960  -13.6860   -0.8960 C   0  0  0  0  0  0  0  0  0  0  0  0
   23.1880  -14.5820   -1.0740 N   0  0  0  0  0  0  0  0  0  0  0  0
   21.9120  -14.1110   -1.0490 C   0  0  0  0  0  0  0  0  0  0  0  0
   25.1160  -11.3540   -0.5220 C   0  0  0  0  0  0  0  0  0  0  0  0
   24.9390  -10.0000   -0.8330 C   0  0  0  0  0  0  0  0  0  0  0  0
   25.9490   -9.0410   -0.6840 C   0  0  0  0  0  0  0  0  0  0  0  0
   27.1820   -9.4900   -0.2230 C   0  0  0  0  0  0  0  0  0  0  0  0
   28.3660   -8.8410    0.0140 N   0  0  0  0  0  0  0  0  0  0  0  0
   28.5820   -7.8610   -0.1010 H   0  0  0  0  0  0  0  0  0  0  0  0
   29.3280   -9.6480    0.4650 N   0  0  0  0  0  0  0  0  0  0  0  0
   28.7610  -10.8530    0.5210 C   0  0  0  0  0  0  0  0  0  0  0  0
   29.5190  -12.0410    0.9940 C   0  0  0  0  0  0  0  0  0  0  0  0
   27.4090  -10.8120    0.0960 C   0  0  0  0  0  0  0  0  0  0  0  0
   26.3740  -11.7540   -0.0460 C   0  0  0  0  0  0  0  0  0  0  0  0
   20.4340  -12.1510   -0.5940 O   0  0  0  0  0  0  0  0  0  0  0  0
   19.8400  -11.3110   -1.5630 C   0  0  0  0  0  0  0  0  0  0  0  0
   18.6020  -11.9550   -2.2080 C   0  0  1  0  0  0  0  0  0  0  0  0
   18.9450  -12.3470   -3.6290 N   0  0  0  0  0  0  0  0  0  0  0  0
   19.6690  -13.0730   -3.6780 H   0  0  0  0  0  0  0  0  0  0  0  0
   19.3080  -11.5340   -4.1560 H   0  0  0  0  0  0  0  0  0  0  0  0
   18.1090  -12.6650   -4.1430 H   0  0  0  0  0  0  0  0  0  0  0  0
   18.1800  -13.1850   -1.4010 C   0  0  0  0  0  0  0  0  0  0  0  0
   18.0070  -14.4220   -2.2380 C   0  0  0  0  0  0  0  0  0  0  0  0
   19.1100  -15.2270   -2.5450 C   0  0  0  0  0  0  0  0  0  0  0  0
   18.9450  -16.3560   -3.3420 C   0  0  0  0  0  0  0  0  0  0  0  0
   17.6810  -16.6990   -3.8210 C   0  0  0  0  0  0  0  0  0  0  0  0
   17.4630  -18.2210   -4.9070 Br  0  0  0  0  0  0  0  0  0  0  0  0
   16.5800  -15.9110   -3.5090 C   0  0  0  0  0  0  0  0  0  0  0  0
   16.7410  -14.7720   -2.7270 C   0  0  0  0  0  0  0  0  0  0  0  0
  1  2  2  0  0  0  0
  1 18  1  0  0  0  0
  3  2  1  0  0  0  0
  3  7  1  0  0  0  0
  4  3  2  0  0  0  0
  5  6  2  0  0  0  0
  5  4  1  0  0  0  0
  6  1  1  0  0  0  0
  7 17  2  0  0  0  0
  8  9  2  0  0  0  0
  8  7  1  0  0  0  0
  9 10  1  0  0  0  0
 10 11  1  0  0  0  0
 10 16  2  0  0  0  0
 11 13  1  0  0  0  0
 12 11  1  0  0  0  0
 13 14  2  0  0  0  0
 14 15  1  0  0  0  0
 16 14  1  0  0  0  0
 17 16  1  0  0  0  0
 19 18  1  0  0  0  0
 20 19  1  1  0  0  0
 20 25  1  0  0  0  0
 21 20  1  0  0  0  0
 22 21  1  0  0  0  0
 23 21  1  0  0  0  0
 24 21  1  0  0  0  0
 26 25  1  0  0  0  0
 27 26  1  0  0  0  0
 28 27  2  0  0  0  0
 29 31  2  0  0  0  0
 29 28  1  0  0  0  0
 30 29  1  0  0  0  0
 31 32  1  0  0  0  0
 32 26  2  0  0  0  0
M  END
>  <minimizedAffinity>
-8.49960423

$$$$

 OpenBabel12271915413D

 32 35  0  0  1  0  0  0  0  0999 V2000
   24.9250  -11.9880   -0.0350 C   0  0  0  0  0  0  0  0  0  0  0  0
   23.6210  -12.2920   -0.4090 C   0  0  0  0  0  0  0  0  0  0  0  0
   23.2280  -13.5530   -0.8280 C   0  0  0  0  0  0  0  0  0  0  0  0
   24.2560  -14.4950   -0.9040 C   0  0  0  0  0  0  0  0  0  0  0  0
   25.5530  -14.2560   -0.5650 N   0  0  0  0  0  0  0  0  0  0  0  0
   25.8660  -13.0150   -0.1020 C   0  0  0  0  0  0  0  0  0  0  0  0
   21.8220  -13.8380   -1.1580 C   0  0  0  0  0  0  0  0  0  0  0  0
   21.4430  -15.0630   -1.7200 C   0  0  0  0  0  0  0  0  0  0  0  0
   20.1160  -15.3880   -2.0270 C   0  0  0  0  0  0  0  0  0  0  0  0
   19.1530  -14.4180   -1.7680 C   0  0  0  0  0  0  0  0  0  0  0  0
   17.7960  -14.3970   -1.9600 N   0  0  0  0  0  0  0  0  0  0  0  0
   17.2010  -15.1190   -2.3410 H   0  0  0  0  0  0  0  0  0  0  0  0
   17.2260  -13.2570   -1.5680 N   0  0  0  0  0  0  0  0  0  0  0  0
   18.2340  -12.5130   -1.1110 C   0  0  0  0  0  0  0  0  0  0  0  0
   18.0020  -11.1500   -0.5650 C   0  0  0  0  0  0  0  0  0  0  0  0
   19.4730  -13.1960   -1.2160 C   0  0  0  0  0  0  0  0  0  0  0  0
   20.8100  -12.8990   -0.9010 C   0  0  0  0  0  0  0  0  0  0  0  0
   25.0690  -10.6790    0.2710 O   0  0  0  0  0  0  0  0  0  0  0  0
   25.9640   -9.8210   -0.4070 C   0  0  0  0  0  0  0  0  0  0  0  0
   25.2360   -8.8530   -1.3530 C   0  0  1  0  0  0  0  0  0  0  0  0
   26.1300   -7.6580   -1.6050 N   0  0  0  0  0  0  0  0  0  0  0  0
   26.9940   -7.9050   -2.1010 H   0  0  0  0  0  0  0  0  0  0  0  0
   26.4170   -7.2220   -0.7130 H   0  0  0  0  0  0  0  0  0  0  0  0
   25.6340   -6.9230   -2.1310 H   0  0  0  0  0  0  0  0  0  0  0  0
   24.9120   -9.5650   -2.6700 C   0  0  0  0  0  0  0  0  0  0  0  0
   23.4390   -9.6620   -2.9530 C   0  0  0  0  0  0  0  0  0  0  0  0
   22.9870  -10.2040   -4.1620 C   0  0  0  0  0  0  0  0  0  0  0  0
   21.6220  -10.2680   -4.4270 C   0  0  0  0  0  0  0  0  0  0  0  0
   20.7020   -9.8100   -3.4850 C   0  0  0  0  0  0  0  0  0  0  0  0
   18.8570   -9.8880   -3.8520 Br  0  0  0  0  0  0  0  0  0  0  0  0
   21.1430   -9.2820   -2.2780 C   0  0  0  0  0  0  0  0  0  0  0  0
   22.5070   -9.2010   -2.0140 C   0  0  0  0  0  0  0  0  0  0  0  0
  1 18  1  0  0  0  0
  2  1  2  0  0  0  0
  3  2  1  0  0  0  0
  4  3  2  0  0  0  0
  4  5  1  0  0  0  0
  5  6  2  0  0  0  0
  6  1  1  0  0  0  0
  7 17  1  0  0  0  0
  7  3  1  0  0  0  0
  8  7  2  0  0  0  0
  9 10  2  0  0  0  0
  9  8  1  0  0  0  0
 10 16  1  0  0  0  0
 11 10  1  0  0  0  0
 11 13  1  0  0  0  0
 12 11  1  0  0  0  0
 13 14  2  0  0  0  0
 14 15  1  0  0  0  0
 16 14  1  0  0  0  0
 16 17  2  0  0  0  0
 19 18  1  0  0  0  0
 20 25  1  6  0  0  0
 20 19  1  0  0  0  0
 21 20  1  0  0  0  0
 21 23  1  0  0  0  0
 22 21  1  0  0  0  0
 24 21  1  0  0  0  0
 26 25  1  0  0  0  0
 26 32  2  0  0  0  0
 27 26  1  0  0  0  0
 28 27  2  0  0  0  0
 28 29  1  0  0  0  0
 29 31  2  0  0  0  0
 30 29  1  0  0  0  0
 31 32  1  0  0  0  0
M  END
>  <minimizedAffinity>
-8.36879921

$$$$
