
 OpenBabel12271915473D

 37 41  0  0  1  0  0  0  0  0999 V2000
   18.6510  -14.6570   -2.7080 C   0  0  2  0  0  0  0  0  0  0  0  0
   19.9670  -14.8950   -3.2680 O   0  0  0  0  0  0  0  0  0  0  0  0
   21.1150  -15.0820   -2.5950 C   0  0  0  0  0  0  0  0  0  0  0  0
   22.1250  -15.4960   -3.1800 O   0  0  0  0  0  0  0  0  0  0  0  0
   21.1460  -14.7850   -1.1580 C   0  0  0  0  0  0  0  0  0  0  0  0
   20.0070  -14.4470   -0.5040 C   0  0  0  0  0  0  0  0  0  0  0  0
   19.9300  -14.2110    0.7590 O   0  0  0  0  0  0  0  0  0  0  0  0
   18.6940  -14.2720   -1.2190 C   0  0  0  0  0  0  0  0  0  0  0  0
   17.8730  -15.9520   -2.9610 C   0  0  0  0  0  0  0  0  0  0  0  0
   16.3760  -15.7320   -3.2890 C   0  0  0  0  0  0  0  0  0  0  0  0
   15.9740  -16.7950   -4.3170 C   0  0  0  0  0  0  0  0  0  0  0  0
   17.1920  -17.6790   -4.5270 C   0  0  0  0  0  0  0  0  0  0  0  0
   18.3710  -16.7840   -4.1640 C   0  0  0  0  0  0  0  0  0  0  0  0
   22.4680  -14.9000   -0.4530 C   0  0  0  0  0  0  0  0  0  0  0  0
   23.2400  -13.6080   -0.4810 C   0  0  0  0  0  0  0  0  0  0  0  0
   24.5630  -13.5110   -0.7400 N   0  0  0  0  0  0  0  0  0  0  0  0
   24.8490  -12.2360   -0.6730 C   0  0  0  0  0  0  0  0  0  0  0  0
   26.0420  -11.5720   -0.8410 N   0  0  0  0  0  0  0  0  0  0  0  0
   26.0360  -10.2900   -0.7150 C   0  0  0  0  0  0  0  0  0  0  0  0
   27.3060   -9.5180   -0.9110 C   0  0  0  0  0  0  0  0  0  0  0  0
   24.8260   -9.4980   -0.3800 C   0  0  0  0  0  0  0  0  0  0  0  0
   23.6800  -10.1730   -0.2350 C   0  0  0  0  0  0  0  0  0  0  0  0
   22.3940   -9.4760    0.0760 C   0  0  0  0  0  0  0  0  0  0  0  0
   23.6850  -11.5540   -0.3940 N   0  0  0  0  0  0  0  0  0  0  0  0
   22.6590  -12.4150   -0.3460 N   0  0  0  0  0  0  0  0  0  0  0  0
   18.1970  -13.4710   -3.5640 C   0  0  0  0  0  0  0  0  0  0  0  0
   17.9560  -12.0850   -2.9670 C   0  0  0  0  0  0  0  0  0  0  0  0
   19.8970   -8.8360   -2.9680 C   0  0  0  0  0  0  0  0  0  0  0  0
   21.1550   -9.2490   -3.2440 N   0  0  0  0  0  0  0  0  0  0  0  0
   21.3630  -10.5610   -3.4810 C   0  0  0  0  0  0  0  0  0  0  0  0
   20.3420  -11.4880   -3.4130 C   0  0  0  0  0  0  0  0  0  0  0  0
   19.0530  -11.0750   -3.1120 C   0  0  0  0  0  0  0  0  0  0  0  0
   18.8310   -9.7200   -2.8960 C   0  0  0  0  0  0  0  0  0  0  0  0
   21.0550   -6.7720   -2.2400 C   0  0  0  0  0  0  0  0  0  0  0  0
   19.7160   -7.3660   -2.6580 C   0  0  0  0  0  0  0  0  0  0  0  0
   22.7720  -11.0280   -3.7580 C   0  0  0  0  0  0  0  0  0  0  0  0
   23.6670   -9.8060   -3.9480 C   0  0  0  0  0  0  0  0  0  0  0  0
  1 26  1  6  0  0  0
  1  8  1  0  0  0  0
  2  1  1  0  0  0  0
  2  3  1  0  0  0  0
  3  5  1  0  0  0  0
  4  3  2  0  0  0  0
  5  6  2  0  0  0  0
  5 14  1  0  0  0  0
  6  7  1  0  0  0  0
  8  6  1  0  0  0  0
  9  1  1  0  0  0  0
 10  9  1  0  0  0  0
 11 10  1  0  0  0  0
 12 11  1  0  0  0  0
 12 13  1  0  0  0  0
 13  9  1  0  0  0  0
 15 14  1  0  0  0  0
 15 25  2  0  0  0  0
 16 17  2  0  0  0  0
 16 15  2  0  0  0  0
 17 24  1  0  0  0  0
 18 19  2  0  0  0  0
 18 17  2  0  0  0  0
 19 21  1  0  0  0  0
 20 19  1  0  0  0  0
 21 22  2  0  0  0  0
 22 23  1  0  0  0  0
 24 25  1  0  0  0  0
 24 22  1  0  0  0  0
 26 27  1  0  0  0  0
 28 33  1  0  0  0  0
 28 35  1  0  0  0  0
 29 28  2  0  0  0  0
 30 31  1  0  0  0  0
 30 29  2  0  0  0  0
 31 32  2  0  0  0  0
 32 27  1  0  0  0  0
 32 33  1  0  0  0  0
 35 34  1  0  0  0  0
 36 30  1  0  0  0  0
 37 36  1  0  0  0  0
M  END
>  <minimizedAffinity>
-9.00987148

$$$$

 OpenBabel12271915473D

 37 41  0  0  1  0  0  0  0  0999 V2000
   18.6330  -14.6680   -2.7140 C   0  0  2  0  0  0  0  0  0  0  0  0
   19.9670  -14.9030   -3.2300 O   0  0  0  0  0  0  0  0  0  0  0  0
   21.0960  -15.0690   -2.5200 C   0  0  0  0  0  0  0  0  0  0  0  0
   22.1260  -15.4820   -3.0670 O   0  0  0  0  0  0  0  0  0  0  0  0
   21.0800  -14.7500   -1.0870 C   0  0  0  0  0  0  0  0  0  0  0  0
   19.9190  -14.4130   -0.4730 C   0  0  0  0  0  0  0  0  0  0  0  0
   19.8020  -14.1580    0.7830 O   0  0  0  0  0  0  0  0  0  0  0  0
   18.6270  -14.2600   -1.2310 C   0  0  0  0  0  0  0  0  0  0  0  0
   17.8740  -15.9740   -2.9700 C   0  0  0  0  0  0  0  0  0  0  0  0
   16.3730  -15.7760   -3.2900 C   0  0  0  0  0  0  0  0  0  0  0  0
   15.9820  -16.8390   -4.3220 C   0  0  0  0  0  0  0  0  0  0  0  0
   17.2130  -17.7030   -4.5420 C   0  0  0  0  0  0  0  0  0  0  0  0
   18.3790  -16.7910   -4.1800 C   0  0  0  0  0  0  0  0  0  0  0  0
   22.3810  -14.8420   -0.3400 C   0  0  0  0  0  0  0  0  0  0  0  0
   23.1380  -13.5410   -0.3560 C   0  0  0  0  0  0  0  0  0  0  0  0
   24.4810  -13.4380   -0.4640 N   0  0  0  0  0  0  0  0  0  0  0  0
   24.7440  -12.1560   -0.4430 C   0  0  0  0  0  0  0  0  0  0  0  0
   25.9420  -11.4830   -0.5090 N   0  0  0  0  0  0  0  0  0  0  0  0
   25.9090  -10.1960   -0.4640 C   0  0  0  0  0  0  0  0  0  0  0  0
   27.1850   -9.4150   -0.5560 C   0  0  0  0  0  0  0  0  0  0  0  0
   24.6600   -9.4060   -0.3230 C   0  0  0  0  0  0  0  0  0  0  0  0
   23.5110  -10.0900   -0.2720 C   0  0  0  0  0  0  0  0  0  0  0  0
   22.1900   -9.3990   -0.1570 C   0  0  0  0  0  0  0  0  0  0  0  0
   23.5490  -11.4780   -0.3440 N   0  0  0  0  0  0  0  0  0  0  0  0
   22.5330  -12.3520   -0.3640 N   0  0  0  0  0  0  0  0  0  0  0  0
   18.1950  -13.4990   -3.6020 C   0  0  0  0  0  0  0  0  0  0  0  0
   18.0070  -12.0870   -3.0490 C   0  0  0  0  0  0  0  0  0  0  0  0
   21.4240  -10.5660   -3.6280 C   0  0  0  0  0  0  0  0  0  0  0  0
   21.1260   -9.2720   -3.8870 N   0  0  0  0  0  0  0  0  0  0  0  0
   19.8350   -8.8840   -3.8210 C   0  0  0  0  0  0  0  0  0  0  0  0
   18.8170   -9.7720   -3.5370 C   0  0  0  0  0  0  0  0  0  0  0  0
   19.1130  -11.1040   -3.2890 C   0  0  0  0  0  0  0  0  0  0  0  0
   20.4450  -11.5000   -3.3260 C   0  0  0  0  0  0  0  0  0  0  0  0
   23.6860   -9.7770   -4.2570 C   0  0  0  0  0  0  0  0  0  0  0  0
   22.8760  -10.9690   -3.7610 C   0  0  0  0  0  0  0  0  0  0  0  0
   19.4980   -7.4470   -4.1410 C   0  0  0  0  0  0  0  0  0  0  0  0
   20.7440   -6.5910   -3.9310 C   0  0  0  0  0  0  0  0  0  0  0  0
  1 26  1  6  0  0  0
  1  8  1  0  0  0  0
  2  1  1  0  0  0  0
  2  3  1  0  0  0  0
  3  5  1  0  0  0  0
  4  3  2  0  0  0  0
  5  6  2  0  0  0  0
  5 14  1  0  0  0  0
  6  7  1  0  0  0  0
  8  6  1  0  0  0  0
  9  1  1  0  0  0  0
 10  9  1  0  0  0  0
 11 10  1  0  0  0  0
 12 11  1  0  0  0  0
 12 13  1  0  0  0  0
 13  9  1  0  0  0  0
 15 14  1  0  0  0  0
 16 17  2  0  0  0  0
 16 15  2  0  0  0  0
 17 24  1  0  0  0  0
 18 19  2  0  0  0  0
 18 17  2  0  0  0  0
 19 21  1  0  0  0  0
 20 19  1  0  0  0  0
 21 22  2  0  0  0  0
 22 23  1  0  0  0  0
 24 22  1  0  0  0  0
 25 15  2  0  0  0  0
 25 24  1  0  0  0  0
 26 27  1  0  0  0  0
 28 33  1  0  0  0  0
 29 30  2  0  0  0  0
 29 28  2  0  0  0  0
 30 31  1  0  0  0  0
 31 32  2  0  0  0  0
 32 27  1  0  0  0  0
 33 32  1  0  0  0  0
 34 35  1  0  0  0  0
 35 28  1  0  0  0  0
 36 37  1  0  0  0  0
 36 30  1  0  0  0  0
M  END
>  <minimizedAffinity>
-8.97360611

$$$$

 OpenBabel12271915473D

 37 41  0  0  1  0  0  0  0  0999 V2000
   19.3380  -14.9050   -2.7710 C   0  0  2  0  0  0  0  0  0  0  0  0
   19.4190  -14.6290   -1.3510 O   0  0  0  0  0  0  0  0  0  0  0  0
   19.0040  -13.5210   -0.7120 C   0  0  0  0  0  0  0  0  0  0  0  0
   18.9250  -13.5010    0.5230 O   0  0  0  0  0  0  0  0  0  0  0  0
   18.6510  -12.3410   -1.5100 C   0  0  0  0  0  0  0  0  0  0  0  0
   18.6260  -12.4100   -2.8630 C   0  0  0  0  0  0  0  0  0  0  0  0
   18.2890  -11.4410   -3.6410 O   0  0  0  0  0  0  0  0  0  0  0  0
   19.0420  -13.6500   -3.6090 C   0  0  0  0  0  0  0  0  0  0  0  0
   18.2500  -15.9760   -2.9060 C   0  0  0  0  0  0  0  0  0  0  0  0
   16.8190  -15.4030   -3.0370 C   0  0  0  0  0  0  0  0  0  0  0  0
   16.0460  -16.3210   -3.9920 C   0  0  0  0  0  0  0  0  0  0  0  0
   16.9840  -17.4620   -4.3500 C   0  0  0  0  0  0  0  0  0  0  0  0
   18.3780  -16.8760   -4.1540 C   0  0  0  0  0  0  0  0  0  0  0  0
   18.2950  -11.0830   -0.7670 C   0  0  0  0  0  0  0  0  0  0  0  0
   19.3380  -10.0110   -0.9360 C   0  0  0  0  0  0  0  0  0  0  0  0
   19.1160   -8.8130   -1.5210 N   0  0  0  0  0  0  0  0  0  0  0  0
   20.2560   -8.1730   -1.4690 C   0  0  0  0  0  0  0  0  0  0  0  0
   20.6080   -6.9220   -1.9230 N   0  0  0  0  0  0  0  0  0  0  0  0
   21.8230   -6.5370   -1.7370 C   0  0  0  0  0  0  0  0  0  0  0  0
   22.2490   -5.1740   -2.1930 C   0  0  0  0  0  0  0  0  0  0  0  0
   22.8640   -7.3720   -1.0860 C   0  0  0  0  0  0  0  0  0  0  0  0
   22.4870   -8.5780   -0.6460 C   0  0  0  0  0  0  0  0  0  0  0  0
   23.4430   -9.4940    0.0490 C   0  0  0  0  0  0  0  0  0  0  0  0
   21.1690   -8.9810   -0.8280 N   0  0  0  0  0  0  0  0  0  0  0  0
   20.5670  -10.1100   -0.4270 N   0  0  0  0  0  0  0  0  0  0  0  0
   20.7590  -15.4130   -3.0350 C   0  0  0  0  0  0  0  0  0  0  0  0
   21.8220  -15.4520   -1.9380 C   0  0  0  0  0  0  0  0  0  0  0  0
   24.6910  -13.1860   -0.9620 C   0  0  0  0  0  0  0  0  0  0  0  0
   24.4980  -12.1110   -1.7600 N   0  0  0  0  0  0  0  0  0  0  0  0
   23.4170  -12.0980   -2.5690 C   0  0  0  0  0  0  0  0  0  0  0  0
   22.5340  -13.1570   -2.6280 C   0  0  0  0  0  0  0  0  0  0  0  0
   22.7370  -14.2710   -1.8260 C   0  0  0  0  0  0  0  0  0  0  0  0
   23.8320  -14.2740   -0.9720 C   0  0  0  0  0  0  0  0  0  0  0  0
   26.4600  -11.7560    0.0190 C   0  0  0  0  0  0  0  0  0  0  0  0
   25.9410  -13.1830   -0.1090 C   0  0  0  0  0  0  0  0  0  0  0  0
   23.2170  -10.9130   -3.4830 C   0  0  0  0  0  0  0  0  0  0  0  0
   21.7370  -10.8160   -3.8470 C   0  0  0  0  0  0  0  0  0  0  0  0
  1 26  1  6  0  0  0
  1  2  1  0  0  0  0
  2  3  1  0  0  0  0
  3  4  2  0  0  0  0
  5 14  1  0  0  0  0
  5  3  1  0  0  0  0
  6  5  2  0  0  0  0
  7  6  1  0  0  0  0
  8  6  1  0  0  0  0
  8  1  1  0  0  0  0
  9  1  1  0  0  0  0
 10  9  1  0  0  0  0
 11 10  1  0  0  0  0
 12 13  1  0  0  0  0
 12 11  1  0  0  0  0
 13  9  1  0  0  0  0
 15 14  1  0  0  0  0
 15 25  2  0  0  0  0
 16 17  2  0  0  0  0
 16 15  2  0  0  0  0
 17 24  1  0  0  0  0
 18 19  2  0  0  0  0
 18 17  2  0  0  0  0
 19 21  1  0  0  0  0
 20 19  1  0  0  0  0
 21 22  2  0  0  0  0
 22 23  1  0  0  0  0
 24 22  1  0  0  0  0
 24 25  1  0  0  0  0
 26 27  1  0  0  0  0
 27 32  1  0  0  0  0
 28 35  1  0  0  0  0
 29 28  2  0  0  0  0
 30 29  2  0  0  0  0
 31 30  1  0  0  0  0
 31 32  2  0  0  0  0
 32 33  1  0  0  0  0
 33 28  1  0  0  0  0
 35 34  1  0  0  0  0
 36 30  1  0  0  0  0
 37 36  1  0  0  0  0
M  END
>  <minimizedAffinity>
-8.85534096

$$$$

 OpenBabel12271915473D

 37 41  0  0  1  0  0  0  0  0999 V2000
   18.6010  -14.5730   -2.6220 C   0  0  2  0  0  0  0  0  0  0  0  0
   19.8350  -14.7570   -3.3590 O   0  0  0  0  0  0  0  0  0  0  0  0
   21.0620  -14.9660   -2.8520 C   0  0  0  0  0  0  0  0  0  0  0  0
   21.9910  -15.3290   -3.5850 O   0  0  0  0  0  0  0  0  0  0  0  0
   21.2750  -14.7540   -1.4150 C   0  0  0  0  0  0  0  0  0  0  0  0
   20.2280  -14.4730   -0.6010 C   0  0  0  0  0  0  0  0  0  0  0  0
   20.3130  -14.3120    0.6730 O   0  0  0  0  0  0  0  0  0  0  0  0
   18.8330  -14.2750   -1.1310 C   0  0  0  0  0  0  0  0  0  0  0  0
   17.8060  -15.8630   -2.8510 C   0  0  0  0  0  0  0  0  0  0  0  0
   16.3290  -15.6280   -3.2470 C   0  0  0  0  0  0  0  0  0  0  0  0
   15.9450  -16.7270   -4.2450 C   0  0  0  0  0  0  0  0  0  0  0  0
   17.1520  -17.6420   -4.3680 C   0  0  0  0  0  0  0  0  0  0  0  0
   18.3340  -16.7550   -3.9970 C   0  0  0  0  0  0  0  0  0  0  0  0
   22.6780  -14.8900   -0.8940 C   0  0  0  0  0  0  0  0  0  0  0  0
   23.5080  -13.6650   -1.1710 C   0  0  0  0  0  0  0  0  0  0  0  0
   23.2120  -12.7350   -2.1070 N   0  0  0  0  0  0  0  0  0  0  0  0
   24.1630  -11.8390   -2.0350 C   0  0  0  0  0  0  0  0  0  0  0  0
   24.3700  -10.6870   -2.7580 N   0  0  0  0  0  0  0  0  0  0  0  0
   25.4080   -9.9800   -2.4730 C   0  0  0  0  0  0  0  0  0  0  0  0
   25.6650   -8.7040   -3.2160 C   0  0  0  0  0  0  0  0  0  0  0  0
   26.3980  -10.3480   -1.4300 C   0  0  0  0  0  0  0  0  0  0  0  0
   26.1620  -11.4690   -0.7370 C   0  0  0  0  0  0  0  0  0  0  0  0
   27.0770  -11.9240    0.3550 C   0  0  0  0  0  0  0  0  0  0  0  0
   25.0290  -12.2180   -1.0320 N   0  0  0  0  0  0  0  0  0  0  0  0
   24.5720  -13.3300   -0.4400 N   0  0  0  0  0  0  0  0  0  0  0  0
   18.0310  -13.3450   -3.3400 C   0  0  0  0  0  0  0  0  0  0  0  0
   17.9330  -11.9810   -2.6590 C   0  0  0  0  0  0  0  0  0  0  0  0
   20.9410   -9.9870   -3.7980 C   0  0  0  0  0  0  0  0  0  0  0  0
   21.3520   -9.3990   -2.6510 N   0  0  0  0  0  0  0  0  0  0  0  0
   20.6930   -9.6890   -1.5090 C   0  0  0  0  0  0  0  0  0  0  0  0
   19.6000  -10.5310   -1.4880 C   0  0  0  0  0  0  0  0  0  0  0  0
   19.1610  -11.1220   -2.6630 C   0  0  0  0  0  0  0  0  0  0  0  0
   19.8560  -10.8490   -3.8350 C   0  0  0  0  0  0  0  0  0  0  0  0
   20.6810   -9.5070   -6.2140 C   0  0  0  0  0  0  0  0  0  0  0  0
   21.6750   -9.5960   -5.0630 C   0  0  0  0  0  0  0  0  0  0  0  0
   21.1310   -9.0090   -0.2340 C   0  0  0  0  0  0  0  0  0  0  0  0
   22.5060   -9.5430    0.1620 C   0  0  0  0  0  0  0  0  0  0  0  0
  1 26  1  6  0  0  0
  1  8  1  0  0  0  0
  2  3  1  0  0  0  0
  2  1  1  0  0  0  0
  3  5  1  0  0  0  0
  4  3  2  0  0  0  0
  5 14  1  0  0  0  0
  5  6  2  0  0  0  0
  6  7  1  0  0  0  0
  8  6  1  0  0  0  0
  9  1  1  0  0  0  0
 10  9  1  0  0  0  0
 11 10  1  0  0  0  0
 12 11  1  0  0  0  0
 12 13  1  0  0  0  0
 13  9  1  0  0  0  0
 15 14  1  0  0  0  0
 15 25  2  0  0  0  0
 16 17  2  0  0  0  0
 16 15  2  0  0  0  0
 17 24  1  0  0  0  0
 18 19  2  0  0  0  0
 18 17  2  0  0  0  0
 19 21  1  0  0  0  0
 20 19  1  0  0  0  0
 21 22  2  0  0  0  0
 22 23  1  0  0  0  0
 24 22  1  0  0  0  0
 24 25  1  0  0  0  0
 26 27  1  0  0  0  0
 28 29  2  0  0  0  0
 29 30  2  0  0  0  0
 30 31  1  0  0  0  0
 30 36  1  0  0  0  0
 32 27  1  0  0  0  0
 32 31  2  0  0  0  0
 33 28  1  0  0  0  0
 33 32  1  0  0  0  0
 34 35  1  0  0  0  0
 35 28  1  0  0  0  0
 36 37  1  0  0  0  0
M  END
>  <minimizedAffinity>
-8.4774189

$$$$

 OpenBabel12271915473D

 37 41  0  0  1  0  0  0  0  0999 V2000
   19.5860  -14.5970   -2.2060 C   0  0  2  0  0  0  0  0  0  0  0  0
   18.9690  -13.6580   -1.2900 O   0  0  0  0  0  0  0  0  0  0  0  0
   18.5750  -12.4010   -1.5580 C   0  0  0  0  0  0  0  0  0  0  0  0
   17.8630  -11.7830   -0.7560 O   0  0  0  0  0  0  0  0  0  0  0  0
   19.0070  -11.7810   -2.8160 C   0  0  0  0  0  0  0  0  0  0  0  0
   19.6850  -12.5050   -3.7400 C   0  0  0  0  0  0  0  0  0  0  0  0
   20.0660  -12.0590   -4.8850 O   0  0  0  0  0  0  0  0  0  0  0  0
   20.1050  -13.9290   -3.4900 C   0  0  0  0  0  0  0  0  0  0  0  0
   18.5060  -15.6490   -2.4810 C   0  0  0  0  0  0  0  0  0  0  0  0
   17.0790  -15.0650   -2.6070 C   0  0  0  0  0  0  0  0  0  0  0  0
   16.3430  -15.8860   -3.6720 C   0  0  0  0  0  0  0  0  0  0  0  0
   17.2960  -16.9880   -4.1040 C   0  0  0  0  0  0  0  0  0  0  0  0
   18.6800  -16.4260   -3.8050 C   0  0  0  0  0  0  0  0  0  0  0  0
   18.6420  -10.3400   -3.0410 C   0  0  0  0  0  0  0  0  0  0  0  0
   19.7790   -9.4100   -2.7150 C   0  0  0  0  0  0  0  0  0  0  0  0
   20.0340   -8.2540   -3.3680 N   0  0  0  0  0  0  0  0  0  0  0  0
   21.0900   -7.7420   -2.7900 C   0  0  0  0  0  0  0  0  0  0  0  0
   21.7870   -6.5840   -3.0530 N   0  0  0  0  0  0  0  0  0  0  0  0
   22.8090   -6.3210   -2.3150 C   0  0  0  0  0  0  0  0  0  0  0  0
   23.5880   -5.0610   -2.5470 C   0  0  0  0  0  0  0  0  0  0  0  0
   23.2860   -7.2010   -1.2190 C   0  0  0  0  0  0  0  0  0  0  0  0
   22.5800   -8.3120   -0.9820 C   0  0  0  0  0  0  0  0  0  0  0  0
   22.9510   -9.2590    0.1140 C   0  0  0  0  0  0  0  0  0  0  0  0
   21.4640   -8.5830   -1.7660 N   0  0  0  0  0  0  0  0  0  0  0  0
   20.5910   -9.5960   -1.6740 N   0  0  0  0  0  0  0  0  0  0  0  0
   20.7500  -15.0990   -1.3440 C   0  0  0  0  0  0  0  0  0  0  0  0
   21.4290  -14.2100   -0.3030 C   0  0  0  0  0  0  0  0  0  0  0  0
   24.8310  -12.5860   -0.6340 C   0  0  0  0  0  0  0  0  0  0  0  0
   24.6930  -11.8490   -1.7600 N   0  0  0  0  0  0  0  0  0  0  0  0
   23.4920  -11.8360   -2.3760 C   0  0  0  0  0  0  0  0  0  0  0  0
   22.4230  -12.5760   -1.9130 C   0  0  0  0  0  0  0  0  0  0  0  0
   22.5630  -13.3500   -0.7700 C   0  0  0  0  0  0  0  0  0  0  0  0
   23.7900  -13.3420   -0.1170 C   0  0  0  0  0  0  0  0  0  0  0  0
   26.8030  -11.2120   -0.0360 C   0  0  0  0  0  0  0  0  0  0  0  0
   26.2070  -12.6140   -0.0040 C   0  0  0  0  0  0  0  0  0  0  0  0
   23.3460  -11.0390   -3.6500 C   0  0  0  0  0  0  0  0  0  0  0  0
   24.4020   -9.9360   -3.6650 C   0  0  0  0  0  0  0  0  0  0  0  0
  1 26  1  1  0  0  0
  1  2  1  0  0  0  0
  3  2  1  0  0  0  0
  3  4  2  0  0  0  0
  5  3  1  0  0  0  0
  6  8  1  0  0  0  0
  6  5  2  0  0  0  0
  7  6  1  0  0  0  0
  8  1  1  0  0  0  0
  9  1  1  0  0  0  0
 10  9  1  0  0  0  0
 11 10  1  0  0  0  0
 12 13  1  0  0  0  0
 12 11  1  0  0  0  0
 13  9  1  0  0  0  0
 14  5  1  0  0  0  0
 14 15  1  0  0  0  0
 15 25  2  0  0  0  0
 16 17  2  0  0  0  0
 16 15  2  0  0  0  0
 17 24  1  0  0  0  0
 18 17  2  0  0  0  0
 18 19  2  0  0  0  0
 19 21  1  0  0  0  0
 20 19  1  0  0  0  0
 21 22  2  0  0  0  0
 22 23  1  0  0  0  0
 24 25  1  0  0  0  0
 24 22  1  0  0  0  0
 26 27  1  0  0  0  0
 28 33  1  0  0  0  0
 28 35  1  0  0  0  0
 29 28  2  0  0  0  0
 30 31  1  0  0  0  0
 30 29  2  0  0  0  0
 31 32  2  0  0  0  0
 32 27  1  0  0  0  0
 32 33  1  0  0  0  0
 34 35  1  0  0  0  0
 36 30  1  0  0  0  0
 37 36  1  0  0  0  0
M  END
>  <minimizedAffinity>
-8.46864128

$$$$

 OpenBabel12271915473D

 37 41  0  0  1  0  0  0  0  0999 V2000
   19.8150  -14.1140   -2.0140 C   0  0  2  0  0  0  0  0  0  0  0  0
   19.0930  -13.2480   -1.1030 O   0  0  0  0  0  0  0  0  0  0  0  0
   18.5510  -12.0490   -1.3790 C   0  0  0  0  0  0  0  0  0  0  0  0
   17.7720  -11.5130   -0.5800 O   0  0  0  0  0  0  0  0  0  0  0  0
   18.9030  -11.3910   -2.6430 C   0  0  0  0  0  0  0  0  0  0  0  0
   19.6600  -12.0370   -3.5640 C   0  0  0  0  0  0  0  0  0  0  0  0
   19.9830  -11.5570   -4.7140 O   0  0  0  0  0  0  0  0  0  0  0  0
   20.2470  -13.3990   -3.3050 C   0  0  0  0  0  0  0  0  0  0  0  0
   18.8670  -15.2890   -2.2780 C   0  0  0  0  0  0  0  0  0  0  0  0
   17.3770  -14.8830   -2.3780 C   0  0  0  0  0  0  0  0  0  0  0  0
   16.7290  -15.7830   -3.4360 C   0  0  0  0  0  0  0  0  0  0  0  0
   17.8020  -16.7590   -3.8900 C   0  0  0  0  0  0  0  0  0  0  0  0
   19.1120  -16.0330   -3.6090 C   0  0  0  0  0  0  0  0  0  0  0  0
   18.3690  -10.0060   -2.8780 C   0  0  0  0  0  0  0  0  0  0  0  0
   19.3690   -8.9430   -2.5110 C   0  0  0  0  0  0  0  0  0  0  0  0
   19.2090   -7.6240   -2.7580 N   0  0  0  0  0  0  0  0  0  0  0  0
   20.2820   -7.0390   -2.2900 C   0  0  0  0  0  0  0  0  0  0  0  0
   20.6540   -5.7140   -2.2810 N   0  0  0  0  0  0  0  0  0  0  0  0
   21.7870   -5.4140   -1.7470 C   0  0  0  0  0  0  0  0  0  0  0  0
   22.2260   -3.9820   -1.6910 C   0  0  0  0  0  0  0  0  0  0  0  0
   22.7180   -6.4140   -1.1650 C   0  0  0  0  0  0  0  0  0  0  0  0
   22.3220   -7.6920   -1.1800 C   0  0  0  0  0  0  0  0  0  0  0  0
   23.1650   -8.7820   -0.5990 C   0  0  0  0  0  0  0  0  0  0  0  0
   21.0880   -8.0100   -1.7370 N   0  0  0  0  0  0  0  0  0  0  0  0
   20.4750   -9.2000   -1.8120 N   0  0  0  0  0  0  0  0  0  0  0  0
   21.0310  -14.4670   -1.1530 C   0  0  0  0  0  0  0  0  0  0  0  0
   21.7620  -13.4190   -0.3140 C   0  0  0  0  0  0  0  0  0  0  0  0
   24.2470  -11.6850   -2.5810 C   0  0  0  0  0  0  0  0  0  0  0  0
   25.3690  -11.6720   -1.8270 N   0  0  0  0  0  0  0  0  0  0  0  0
   25.3370  -12.2670   -0.6160 C   0  0  0  0  0  0  0  0  0  0  0  0
   24.1890  -12.8510   -0.1170 C   0  0  0  0  0  0  0  0  0  0  0  0
   23.0290  -12.8510   -0.8770 C   0  0  0  0  0  0  0  0  0  0  0  0
   23.0680  -12.2650   -2.1370 C   0  0  0  0  0  0  0  0  0  0  0  0
   23.0270  -10.1710   -4.1150 C   0  0  0  0  0  0  0  0  0  0  0  0
   24.3120  -10.9630   -3.9100 C   0  0  0  0  0  0  0  0  0  0  0  0
   26.5790  -12.2260    0.2400 C   0  0  0  0  0  0  0  0  0  0  0  0
   27.2460  -10.8620    0.0750 C   0  0  0  0  0  0  0  0  0  0  0  0
  1 26  1  1  0  0  0
  1  2  1  0  0  0  0
  3  2  1  0  0  0  0
  3  4  2  0  0  0  0
  5  3  1  0  0  0  0
  6  8  1  0  0  0  0
  6  5  2  0  0  0  0
  7  6  1  0  0  0  0
  8  1  1  0  0  0  0
  9  1  1  0  0  0  0
 10  9  1  0  0  0  0
 11 10  1  0  0  0  0
 12 13  1  0  0  0  0
 12 11  1  0  0  0  0
 13  9  1  0  0  0  0
 14  5  1  0  0  0  0
 14 15  1  0  0  0  0
 15 25  2  0  0  0  0
 16 15  2  0  0  0  0
 16 17  2  0  0  0  0
 17 18  2  0  0  0  0
 17 24  1  0  0  0  0
 18 19  2  0  0  0  0
 19 20  1  0  0  0  0
 19 21  1  0  0  0  0
 22 21  2  0  0  0  0
 22 23  1  0  0  0  0
 24 22  1  0  0  0  0
 25 24  1  0  0  0  0
 26 27  1  0  0  0  0
 28 33  1  0  0  0  0
 28 29  2  0  0  0  0
 29 30  2  0  0  0  0
 30 31  1  0  0  0  0
 30 36  1  0  0  0  0
 32 27  1  0  0  0  0
 32 31  2  0  0  0  0
 33 32  1  0  0  0  0
 34 35  1  0  0  0  0
 35 28  1  0  0  0  0
 37 36  1  0  0  0  0
M  END
>  <minimizedAffinity>
-8.23487759

$$$$

 OpenBabel12271915473D

 37 41  0  0  1  0  0  0  0  0999 V2000
   26.6290  -10.7330   -0.7000 C   0  0  2  0  0  0  0  0  0  0  0  0
   26.4670  -11.2530   -2.0430 O   0  0  0  0  0  0  0  0  0  0  0  0
   26.0020  -10.5950   -3.1190 C   0  0  0  0  0  0  0  0  0  0  0  0
   26.1210  -11.0800   -4.2510 O   0  0  0  0  0  0  0  0  0  0  0  0
   25.3500   -9.2950   -2.9210 C   0  0  0  0  0  0  0  0  0  0  0  0
   25.3290   -8.7180   -1.6950 C   0  0  0  0  0  0  0  0  0  0  0  0
   24.8190   -7.5640   -1.4360 O   0  0  0  0  0  0  0  0  0  0  0  0
   25.8810   -9.4080   -0.4760 C   0  0  0  0  0  0  0  0  0  0  0  0
   28.1430  -10.5970   -0.5080 C   0  0  0  0  0  0  0  0  0  0  0  0
   28.5900   -9.2010   -0.0120 C   0  0  0  0  0  0  0  0  0  0  0  0
   29.7780   -9.4120    0.9340 C   0  0  0  0  0  0  0  0  0  0  0  0
   30.0770  -10.9020    0.9280 C   0  0  0  0  0  0  0  0  0  0  0  0
   28.7520  -11.5490    0.5460 C   0  0  0  0  0  0  0  0  0  0  0  0
   24.7440   -8.6320   -4.1260 C   0  0  0  0  0  0  0  0  0  0  0  0
   23.2400   -8.6970   -4.1130 C   0  0  0  0  0  0  0  0  0  0  0  0
   22.4280   -7.6240   -3.9920 N   0  0  0  0  0  0  0  0  0  0  0  0
   21.2070   -8.0920   -4.0280 C   0  0  0  0  0  0  0  0  0  0  0  0
   19.9930   -7.4500   -3.9380 N   0  0  0  0  0  0  0  0  0  0  0  0
   18.9280   -8.1710   -4.0010 C   0  0  0  0  0  0  0  0  0  0  0  0
   17.5810   -7.5160   -3.9310 C   0  0  0  0  0  0  0  0  0  0  0  0
   18.9370   -9.6490   -4.1440 C   0  0  0  0  0  0  0  0  0  0  0  0
   20.1330  -10.2410   -4.2400 C   0  0  0  0  0  0  0  0  0  0  0  0
   20.2630  -11.7210   -4.4140 C   0  0  0  0  0  0  0  0  0  0  0  0
   21.2800   -9.4580   -4.1940 N   0  0  0  0  0  0  0  0  0  0  0  0
   22.5620   -9.8270   -4.3210 N   0  0  0  0  0  0  0  0  0  0  0  0
   25.9900  -11.8640    0.1130 C   0  0  0  0  0  0  0  0  0  0  0  0
   25.3680  -13.0900   -0.5550 C   0  0  0  0  0  0  0  0  0  0  0  0
   21.7670  -11.9710   -0.8750 C   0  0  0  0  0  0  0  0  0  0  0  0
   21.1360  -13.1160   -1.2220 N   0  0  0  0  0  0  0  0  0  0  0  0
   21.8620  -14.2520   -1.2990 C   0  0  0  0  0  0  0  0  0  0  0  0
   23.2240  -14.2670   -1.0710 C   0  0  0  0  0  0  0  0  0  0  0  0
   23.8810  -13.0930   -0.7340 C   0  0  0  0  0  0  0  0  0  0  0  0
   23.1300  -11.9280   -0.6250 C   0  0  0  0  0  0  0  0  0  0  0  0
   21.8210   -9.5160   -0.5500 C   0  0  0  0  0  0  0  0  0  0  0  0
   20.9270  -10.7130   -0.8500 C   0  0  0  0  0  0  0  0  0  0  0  0
   21.1650  -15.5240   -1.7170 C   0  0  0  0  0  0  0  0  0  0  0  0
   20.1540  -15.1950   -2.8120 C   0  0  0  0  0  0  0  0  0  0  0  0
  1  9  1  0  0  0  0
  1  8  1  0  0  0  0
  1 26  1  1  0  0  0
  2  1  1  0  0  0  0
  3  5  1  0  0  0  0
  3  2  1  0  0  0  0
  4  3  2  0  0  0  0
  5  6  2  0  0  0  0
  6  7  1  0  0  0  0
  6  8  1  0  0  0  0
  9 10  1  0  0  0  0
  9 13  1  0  0  0  0
 10 11  1  0  0  0  0
 12 11  1  0  0  0  0
 13 12  1  0  0  0  0
 14 15  1  0  0  0  0
 14  5  1  0  0  0  0
 15 16  2  0  0  0  0
 17 16  2  0  0  0  0
 17 18  2  0  0  0  0
 19 18  2  0  0  0  0
 19 20  1  0  0  0  0
 21 19  1  0  0  0  0
 22 24  1  0  0  0  0
 22 21  2  0  0  0  0
 23 22  1  0  0  0  0
 24 17  1  0  0  0  0
 25 24  1  0  0  0  0
 25 15  2  0  0  0  0
 27 26  1  0  0  0  0
 28 35  1  0  0  0  0
 28 33  1  0  0  0  0
 29 28  2  0  0  0  0
 30 29  2  0  0  0  0
 30 31  1  0  0  0  0
 31 32  2  0  0  0  0
 32 33  1  0  0  0  0
 32 27  1  0  0  0  0
 35 34  1  0  0  0  0
 36 30  1  0  0  0  0
 37 36  1  0  0  0  0
M  END
>  <minimizedAffinity>
-8.01813889

$$$$

 OpenBabel12271915473D

 37 41  0  0  1  0  0  0  0  0999 V2000
   19.6680  -13.7060   -1.7610 C   0  0  2  0  0  0  0  0  0  0  0  0
   18.7470  -12.7190   -1.2330 O   0  0  0  0  0  0  0  0  0  0  0  0
   18.2930  -11.6160   -1.8530 C   0  0  0  0  0  0  0  0  0  0  0  0
   17.3430  -10.9770   -1.3820 O   0  0  0  0  0  0  0  0  0  0  0  0
   18.9480  -11.1870   -3.0950 C   0  0  0  0  0  0  0  0  0  0  0  0
   19.9060  -11.9570   -3.6650 C   0  0  0  0  0  0  0  0  0  0  0  0
   20.5040  -11.6830   -4.7720 O   0  0  0  0  0  0  0  0  0  0  0  0
   20.4070  -13.2220   -3.0200 C   0  0  0  0  0  0  0  0  0  0  0  0
   18.8110  -14.9490   -2.0210 C   0  0  0  0  0  0  0  0  0  0  0  0
   17.3080  -14.6430   -2.2330 C   0  0  0  0  0  0  0  0  0  0  0  0
   16.7850  -15.6330   -3.2790 C   0  0  0  0  0  0  0  0  0  0  0  0
   17.9410  -16.5600   -3.6150 C   0  0  0  0  0  0  0  0  0  0  0  0
   19.1840  -15.7410   -3.2930 C   0  0  0  0  0  0  0  0  0  0  0  0
   18.4920   -9.8930   -3.7090 C   0  0  0  0  0  0  0  0  0  0  0  0
   19.4210   -8.7540   -3.3860 C   0  0  0  0  0  0  0  0  0  0  0  0
   19.0810   -7.6750   -2.6460 N   0  0  0  0  0  0  0  0  0  0  0  0
   20.1520   -6.9250   -2.5930 C   0  0  0  0  0  0  0  0  0  0  0  0
   20.3710   -5.7110   -1.9840 N   0  0  0  0  0  0  0  0  0  0  0  0
   21.5420   -5.1880   -2.0960 C   0  0  0  0  0  0  0  0  0  0  0  0
   21.8380   -3.8770   -1.4320 C   0  0  0  0  0  0  0  0  0  0  0  0
   22.6550   -5.8070   -2.8590 C   0  0  0  0  0  0  0  0  0  0  0  0
   22.4130   -6.9940   -3.4290 C   0  0  0  0  0  0  0  0  0  0  0  0
   23.4670   -7.7240   -4.1990 C   0  0  0  0  0  0  0  0  0  0  0  0
   21.1540   -7.5660   -3.2870 N   0  0  0  0  0  0  0  0  0  0  0  0
   20.7110   -8.7540   -3.7230 N   0  0  0  0  0  0  0  0  0  0  0  0
   20.6340  -13.8420   -0.5800 C   0  0  0  0  0  0  0  0  0  0  0  0
   22.1410  -14.0000   -0.7800 C   0  0  0  0  0  0  0  0  0  0  0  0
   25.1330  -11.7990   -0.0560 C   0  0  0  0  0  0  0  0  0  0  0  0
   24.5910  -10.5590   -0.0690 N   0  0  0  0  0  0  0  0  0  0  0  0
   23.2600  -10.4410   -0.2570 C   0  0  0  0  0  0  0  0  0  0  0  0
   22.4510  -11.5380   -0.4710 C   0  0  0  0  0  0  0  0  0  0  0  0
   23.0020  -12.8110   -0.4780 C   0  0  0  0  0  0  0  0  0  0  0  0
   24.3670  -12.9370   -0.2550 C   0  0  0  0  0  0  0  0  0  0  0  0
   27.2250  -10.4790    0.0670 C   0  0  0  0  0  0  0  0  0  0  0  0
   26.6350  -11.8830    0.1080 C   0  0  0  0  0  0  0  0  0  0  0  0
   22.6600   -9.0560   -0.3040 C   0  0  0  0  0  0  0  0  0  0  0  0
   21.1590   -9.1600   -0.0420 C   0  0  0  0  0  0  0  0  0  0  0  0
  1  2  1  0  0  0  0
  1 26  1  1  0  0  0
  3  4  2  0  0  0  0
  3  2  1  0  0  0  0
  5  3  1  0  0  0  0
  6  5  2  0  0  0  0
  6  8  1  0  0  0  0
  7  6  1  0  0  0  0
  8  1  1  0  0  0  0
  9  1  1  0  0  0  0
 10  9  1  0  0  0  0
 11 10  1  0  0  0  0
 12 13  1  0  0  0  0
 12 11  1  0  0  0  0
 13  9  1  0  0  0  0
 14 15  1  0  0  0  0
 14  5  1  0  0  0  0
 15 16  2  0  0  0  0
 16 17  2  0  0  0  0
 17 18  2  0  0  0  0
 19 18  2  0  0  0  0
 19 20  1  0  0  0  0
 21 19  1  0  0  0  0
 22 24  1  0  0  0  0
 22 21  2  0  0  0  0
 23 22  1  0  0  0  0
 24 17  1  0  0  0  0
 25 15  2  0  0  0  0
 25 24  1  0  0  0  0
 27 26  1  0  0  0  0
 27 32  1  0  0  0  0
 28 35  1  0  0  0  0
 29 28  2  0  0  0  0
 30 29  2  0  0  0  0
 31 30  1  0  0  0  0
 32 31  2  0  0  0  0
 32 33  1  0  0  0  0
 33 28  1  0  0  0  0
 34 35  1  0  0  0  0
 36 30  1  0  0  0  0
 36 37  1  0  0  0  0
M  END
>  <minimizedAffinity>
-7.95888233

$$$$

 OpenBabel12271915473D

 37 41  0  0  1  0  0  0  0  0999 V2000
   19.7820  -14.4510   -2.1640 C   0  0  2  0  0  0  0  0  0  0  0  0
   19.4360  -13.7650   -0.9350 O   0  0  0  0  0  0  0  0  0  0  0  0
   19.0440  -12.4870   -0.8000 C   0  0  0  0  0  0  0  0  0  0  0  0
   18.5660  -12.0860    0.2690 O   0  0  0  0  0  0  0  0  0  0  0  0
   19.1970  -11.5790   -1.9440 C   0  0  0  0  0  0  0  0  0  0  0  0
   19.6090  -12.0540   -3.1450 C   0  0  0  0  0  0  0  0  0  0  0  0
   19.7310  -11.3430   -4.2110 O   0  0  0  0  0  0  0  0  0  0  0  0
   20.0140  -13.4900   -3.3420 C   0  0  0  0  0  0  0  0  0  0  0  0
   18.6240  -15.4230   -2.4130 C   0  0  0  0  0  0  0  0  0  0  0  0
   17.2450  -14.7340   -2.5520 C   0  0  0  0  0  0  0  0  0  0  0  0
   16.4450  -15.5200   -3.5960 C   0  0  0  0  0  0  0  0  0  0  0  0
   17.3090  -16.7020   -4.0040 C   0  0  0  0  0  0  0  0  0  0  0  0
   18.7330  -16.2410   -3.7190 C   0  0  0  0  0  0  0  0  0  0  0  0
   18.8510  -10.1320   -1.7330 C   0  0  0  0  0  0  0  0  0  0  0  0
   17.4750   -9.7970   -2.2420 C   0  0  0  0  0  0  0  0  0  0  0  0
   16.3300  -10.3400   -1.7690 N   0  0  0  0  0  0  0  0  0  0  0  0
   15.3630   -9.7950   -2.4610 C   0  0  0  0  0  0  0  0  0  0  0  0
   14.0010   -9.9840   -2.4080 N   0  0  0  0  0  0  0  0  0  0  0  0
   13.2700   -9.3050   -3.2220 C   0  0  0  0  0  0  0  0  0  0  0  0
   11.7790   -9.4590   -3.1880 C   0  0  0  0  0  0  0  0  0  0  0  0
   13.8130   -8.3510   -4.2220 C   0  0  0  0  0  0  0  0  0  0  0  0
   15.1400   -8.1810   -4.2400 C   0  0  0  0  0  0  0  0  0  0  0  0
   15.7960   -7.2260   -5.1860 C   0  0  0  0  0  0  0  0  0  0  0  0
   15.9240   -8.8990   -3.3450 N   0  0  0  0  0  0  0  0  0  0  0  0
   17.2500   -8.8490   -3.1530 N   0  0  0  0  0  0  0  0  0  0  0  0
   21.0920  -15.1260   -1.7440 C   0  0  0  0  0  0  0  0  0  0  0  0
   22.0430  -14.4910   -0.7310 C   0  0  0  0  0  0  0  0  0  0  0  0
   23.8440  -11.7250   -2.5820 C   0  0  0  0  0  0  0  0  0  0  0  0
   23.6120  -10.6490   -1.7960 N   0  0  0  0  0  0  0  0  0  0  0  0
   22.9240  -10.8290   -0.6480 C   0  0  0  0  0  0  0  0  0  0  0  0
   22.4240  -12.0610   -0.2790 C   0  0  0  0  0  0  0  0  0  0  0  0
   22.6420  -13.1650   -1.0900 C   0  0  0  0  0  0  0  0  0  0  0  0
   23.3760  -12.9890   -2.2570 C   0  0  0  0  0  0  0  0  0  0  0  0
   24.2460  -10.0690   -4.3790 C   0  0  0  0  0  0  0  0  0  0  0  0
   24.5750  -11.4710   -3.8830 C   0  0  0  0  0  0  0  0  0  0  0  0
   22.6360   -9.6230    0.2140 C   0  0  0  0  0  0  0  0  0  0  0  0
   22.1100   -8.4970   -0.6720 C   0  0  0  0  0  0  0  0  0  0  0  0
  1 26  1  1  0  0  0
  1  2  1  0  0  0  0
  2  3  1  0  0  0  0
  3  4  2  0  0  0  0
  5 14  1  0  0  0  0
  5  3  1  0  0  0  0
  6  5  2  0  0  0  0
  7  6  1  0  0  0  0
  8  6  1  0  0  0  0
  8  1  1  0  0  0  0
  9  1  1  0  0  0  0
 10  9  1  0  0  0  0
 11 10  1  0  0  0  0
 12 13  1  0  0  0  0
 12 11  1  0  0  0  0
 13  9  1  0  0  0  0
 15 16  2  0  0  0  0
 15 14  1  0  0  0  0
 17 18  2  0  0  0  0
 17 16  2  0  0  0  0
 19 20  1  0  0  0  0
 19 18  2  0  0  0  0
 21 19  1  0  0  0  0
 22 21  2  0  0  0  0
 22 24  1  0  0  0  0
 23 22  1  0  0  0  0
 24 25  1  0  0  0  0
 24 17  1  0  0  0  0
 25 15  2  0  0  0  0
 26 27  1  0  0  0  0
 28 33  1  0  0  0  0
 28 29  2  0  0  0  0
 29 30  2  0  0  0  0
 30 31  1  0  0  0  0
 30 36  1  0  0  0  0
 32 27  1  0  0  0  0
 32 31  2  0  0  0  0
 33 32  1  0  0  0  0
 34 35  1  0  0  0  0
 35 28  1  0  0  0  0
 37 36  1  0  0  0  0
M  END
>  <minimizedAffinity>
-7.79104185

$$$$
