
 OpenBabel12271915523D

 30 33  0  0  1  0  0  0  0  0999 V2000
   21.3590  -14.4100   -1.4590 C   0  0  1  0  0  0  0  0  0  0  0  0
   22.2030  -14.1080   -2.6080 N   0  0  0  0  0  0  0  0  0  0  0  0
   21.6440  -13.6840   -3.3650 H   0  0  0  0  0  0  0  0  0  0  0  0
   23.1280  -13.1150   -2.2230 O   0  0  0  0  0  0  0  0  0  0  0  0
   22.6450  -12.4500   -1.0560 C   0  0  2  0  0  0  0  0  0  0  0  0
   22.4180  -10.9630   -1.3740 C   0  0  1  0  0  0  0  0  0  0  0  0
   23.2830   -9.9670   -0.6060 C   0  0  2  0  0  0  0  0  0  0  0  0
   24.6040  -10.5260   -0.0510 C   0  0  1  0  0  0  0  0  0  0  0  0
   24.8090  -11.9710   -0.4590 C   0  0  2  0  0  0  0  0  0  0  0  0
   23.6350  -12.6750   -0.0650 O   0  0  0  0  0  0  0  0  0  0  0  0
   21.3820  -13.1600   -0.6120 C   0  0  0  0  0  0  0  0  0  0  0  0
   19.9590  -14.7690   -1.8910 C   0  0  0  0  0  0  0  0  0  0  0  0
   18.8460  -14.1210   -1.3540 C   0  0  0  0  0  0  0  0  0  0  0  0
   17.5610  -14.4260   -1.7480 C   0  0  0  0  0  0  0  0  0  0  0  0
   17.3490  -15.4240   -2.7000 C   0  0  0  0  0  0  0  0  0  0  0  0
   16.0680  -15.7500   -3.1120 C   0  0  0  0  0  0  0  0  0  0  0  0
   15.8660  -16.7530   -4.0490 C   0  0  0  0  0  0  0  0  0  0  0  0
   16.9510  -17.4240   -4.5890 C   0  0  0  0  0  0  0  0  0  0  0  0
   18.2360  -17.1070   -4.1990 C   0  0  0  0  0  0  0  0  0  0  0  0
   18.4550  -16.1050   -3.2420 C   0  0  0  0  0  0  0  0  0  0  0  0
   19.7390  -15.7740   -2.8380 C   0  0  0  0  0  0  0  0  0  0  0  0
   22.5150   -9.4040    0.4600 O   0  0  0  0  0  0  0  0  0  0  0  0
   21.7900   -8.8660    0.0610 H   0  0  0  0  0  0  0  0  0  0  0  0
   22.5060  -10.7000   -2.7780 O   0  0  0  0  0  0  0  0  0  0  0  0
   23.4390  -10.5660   -3.0440 H   0  0  0  0  0  0  0  0  0  0  0  0
   25.6990   -9.7320   -0.4850 O   0  0  0  0  0  0  0  0  0  0  0  0
   25.9620   -9.9710   -1.3930 H   0  0  0  0  0  0  0  0  0  0  0  0
   26.0580  -12.6420    0.1230 C   0  0  0  0  0  0  0  0  0  0  0  0
   26.1280  -13.9540   -0.4380 O   0  0  0  0  0  0  0  0  0  0  0  0
   25.2210  -14.3360   -0.4670 H   0  0  0  0  0  0  0  0  0  0  0  0
  1 12  1  6  0  0  0
  1 11  1  0  0  0  0
  2  4  1  0  0  0  0
  2  1  1  0  0  0  0
  3  2  1  0  0  0  0
  4  5  1  0  0  0  0
  5 11  1  1  0  0  0
  5 10  1  0  0  0  0
  6  5  1  6  0  0  0
  6  7  1  0  0  0  0
  7  8  1  0  0  0  0
  7 22  1  1  0  0  0
  8 26  1  6  0  0  0
  9 10  1  0  0  0  0
  9  8  1  0  0  0  0
  9 28  1  1  0  0  0
 12 13  2  0  0  0  0
 14 13  1  0  0  0  0
 15 14  2  0  0  0  0
 16 15  1  0  0  0  0
 17 16  2  0  0  0  0
 18 19  2  0  0  0  0
 18 17  1  0  0  0  0
 19 20  1  0  0  0  0
 20 21  2  0  0  0  0
 20 15  1  0  0  0  0
 21 12  1  0  0  0  0
 23 22  1  0  0  0  0
 24  6  1  0  0  0  0
 25 24  1  0  0  0  0
 27 26  1  0  0  0  0
 29 28  1  0  0  0  0
 30 29  1  0  0  0  0
M  END
>  <minimizedAffinity>
-10.297369

$$$$

 OpenBabel12271915523D

 30 33  0  0  1  0  0  0  0  0999 V2000
   22.2130  -13.4930   -0.8710 C   0  0  1  0  0  0  0  0  0  0  0  0
   23.0870  -13.5960   -2.0330 N   0  0  0  0  0  0  0  0  0  0  0  0
   22.5660  -13.3780   -2.8970 H   0  0  0  0  0  0  0  0  0  0  0  0
   24.0760  -12.5950   -1.9260 O   0  0  0  0  0  0  0  0  0  0  0  0
   23.6300  -11.5880   -1.0190 C   0  0  2  0  0  0  0  0  0  0  0  0
   23.5100  -10.2480   -1.7650 C   0  0  1  0  0  0  0  0  0  0  0  0
   24.4350   -9.1290   -1.2950 C   0  0  2  0  0  0  0  0  0  0  0  0
   25.7080   -9.5830   -0.5610 C   0  0  1  0  0  0  0  0  0  0  0  0
   25.8160  -11.0940   -0.5240 C   0  0  2  0  0  0  0  0  0  0  0  0
   24.5910  -11.5750    0.0230 O   0  0  0  0  0  0  0  0  0  0  0  0
   22.3150  -12.0540   -0.4260 C   0  0  0  0  0  0  0  0  0  0  0  0
   20.7960  -13.8720   -1.2210 C   0  0  0  0  0  0  0  0  0  0  0  0
   19.7070  -13.2910   -0.5680 C   0  0  0  0  0  0  0  0  0  0  0  0
   18.4060  -13.6150   -0.8860 C   0  0  0  0  0  0  0  0  0  0  0  0
   18.1530  -14.5650   -1.8770 C   0  0  0  0  0  0  0  0  0  0  0  0
   16.8540  -14.9080   -2.2130 C   0  0  0  0  0  0  0  0  0  0  0  0
   16.6120  -15.8640   -3.1900 C   0  0  0  0  0  0  0  0  0  0  0  0
   17.6730  -16.4680   -3.8450 C   0  0  0  0  0  0  0  0  0  0  0  0
   18.9730  -16.1330   -3.5300 C   0  0  0  0  0  0  0  0  0  0  0  0
   19.2340  -15.1790   -2.5350 C   0  0  0  0  0  0  0  0  0  0  0  0
   20.5340  -14.8290   -2.2060 C   0  0  0  0  0  0  0  0  0  0  0  0
   23.6980   -8.2290   -0.4630 O   0  0  0  0  0  0  0  0  0  0  0  0
   23.0170   -7.7860   -1.0240 H   0  0  0  0  0  0  0  0  0  0  0  0
   23.6300  -10.4140   -3.1810 O   0  0  0  0  0  0  0  0  0  0  0  0
   24.5720  -10.4240   -3.4460 H   0  0  0  0  0  0  0  0  0  0  0  0
   26.8610   -9.0230   -1.1750 O   0  0  0  0  0  0  0  0  0  0  0  0
   27.1150   -9.5350   -1.9660 H   0  0  0  0  0  0  0  0  0  0  0  0
   27.0090  -11.6440    0.2650 C   0  0  0  0  0  0  0  0  0  0  0  0
   28.1820  -11.3630   -0.5010 O   0  0  0  0  0  0  0  0  0  0  0  0
   27.9880  -11.5270   -1.4510 H   0  0  0  0  0  0  0  0  0  0  0  0
  1 12  1  6  0  0  0
  1 11  1  0  0  0  0
  2  4  1  0  0  0  0
  2  1  1  0  0  0  0
  3  2  1  0  0  0  0
  4  5  1  0  0  0  0
  5 11  1  1  0  0  0
  5 10  1  0  0  0  0
  6  7  1  0  0  0  0
  6  5  1  1  0  0  0
  7  8  1  0  0  0  0
  7 22  1  1  0  0  0
  8 26  1  6  0  0  0
  8  9  1  0  0  0  0
  9 10  1  0  0  0  0
  9 28  1  1  0  0  0
 12 13  2  0  0  0  0
 14 13  1  0  0  0  0
 15 14  2  0  0  0  0
 16 15  1  0  0  0  0
 17 16  2  0  0  0  0
 18 19  2  0  0  0  0
 18 17  1  0  0  0  0
 19 20  1  0  0  0  0
 20 21  2  0  0  0  0
 20 15  1  0  0  0  0
 21 12  1  0  0  0  0
 23 22  1  0  0  0  0
 24  6  1  0  0  0  0
 25 24  1  0  0  0  0
 27 26  1  0  0  0  0
 29 28  1  0  0  0  0
 30 29  1  0  0  0  0
M  END
>  <minimizedAffinity>
-9.55831146

$$$$

 OpenBabel12271915523D

 30 33  0  0  1  0  0  0  0  0999 V2000
   22.3280  -14.3990   -2.1130 C   0  0  1  0  0  0  0  0  0  0  0  0
   21.7440  -15.2490   -1.0830 N   0  0  0  0  0  0  0  0  0  0  0  0
   21.7970  -14.7870   -0.1610 H   0  0  0  0  0  0  0  0  0  0  0  0
   20.3670  -15.3860   -1.3560 O   0  0  0  0  0  0  0  0  0  0  0  0
   19.9520  -14.3300   -2.2220 C   0  0  2  0  0  0  0  0  0  0  0  0
   18.8940  -13.4710   -1.5070 C   0  0  1  0  0  0  0  0  0  0  0  0
   17.5040  -13.4530   -2.1350 C   0  0  2  0  0  0  0  0  0  0  0  0
   17.1610  -14.6580   -3.0260 C   0  0  1  0  0  0  0  0  0  0  0  0
   18.2810  -15.6780   -3.0320 C   0  0  2  0  0  0  0  0  0  0  0  0
   19.4680  -14.9750   -3.3890 O   0  0  0  0  0  0  0  0  0  0  0  0
   21.1880  -13.5430   -2.6110 C   0  0  0  0  0  0  0  0  0  0  0  0
   23.4540  -13.5640   -1.5570 C   0  0  0  0  0  0  0  0  0  0  0  0
   24.4910  -14.1420   -0.8210 C   0  0  0  0  0  0  0  0  0  0  0  0
   25.5350  -13.3950   -0.3190 C   0  0  0  0  0  0  0  0  0  0  0  0
   25.5620  -12.0160   -0.5290 C   0  0  0  0  0  0  0  0  0  0  0  0
   26.6000  -11.2450   -0.0330 C   0  0  0  0  0  0  0  0  0  0  0  0
   26.6120   -9.8720   -0.2360 C   0  0  0  0  0  0  0  0  0  0  0  0
   25.5890   -9.2690   -0.9500 C   0  0  0  0  0  0  0  0  0  0  0  0
   24.5520  -10.0210   -1.4600 C   0  0  0  0  0  0  0  0  0  0  0  0
   24.5180  -11.4080   -1.2520 C   0  0  0  0  0  0  0  0  0  0  0  0
   23.4840  -12.1810   -1.7560 C   0  0  0  0  0  0  0  0  0  0  0  0
   17.3430  -12.2440   -2.8810 O   0  0  0  0  0  0  0  0  0  0  0  0
   17.3520  -11.4900   -2.2450 H   0  0  0  0  0  0  0  0  0  0  0  0
   18.7960  -13.7980   -0.1180 O   0  0  0  0  0  0  0  0  0  0  0  0
   18.1970  -14.5610    0.0130 H   0  0  0  0  0  0  0  0  0  0  0  0
   15.9490  -15.2630   -2.5960 O   0  0  0  0  0  0  0  0  0  0  0  0
   16.1060  -15.8510   -1.8340 H   0  0  0  0  0  0  0  0  0  0  0  0
   18.0680  -16.8760   -3.9650 C   0  0  0  0  0  0  0  0  0  0  0  0
   16.9020  -16.5980   -4.7420 O   0  0  0  0  0  0  0  0  0  0  0  0
   16.2240  -16.1840   -4.1620 H   0  0  0  0  0  0  0  0  0  0  0  0
  1 12  1  1  0  0  0
  1  2  1  0  0  0  0
  2  3  1  0  0  0  0
  4  2  1  0  0  0  0
  5 11  1  6  0  0  0
  5  4  1  0  0  0  0
  6  5  1  6  0  0  0
  6 24  1  0  0  0  0
  7 22  1  6  0  0  0
  7  6  1  0  0  0  0
  8 26  1  1  0  0  0
  8  7  1  0  0  0  0
  9 28  1  6  0  0  0
  9  8  1  0  0  0  0
 10  9  1  0  0  0  0
 10  5  1  0  0  0  0
 11  1  1  0  0  0  0
 12 13  1  0  0  0  0
 13 14  2  0  0  0  0
 15 14  1  0  0  0  0
 15 16  2  0  0  0  0
 17 16  1  0  0  0  0
 18 17  2  0  0  0  0
 19 20  2  0  0  0  0
 19 18  1  0  0  0  0
 20 15  1  0  0  0  0
 21 12  2  0  0  0  0
 21 20  1  0  0  0  0
 22 23  1  0  0  0  0
 24 25  1  0  0  0  0
 26 27  1  0  0  0  0
 29 30  1  0  0  0  0
 29 28  1  0  0  0  0
M  END
>  <minimizedAffinity>
-9.20847988

$$$$

 OpenBabel12271915523D

 30 33  0  0  1  0  0  0  0  0999 V2000
   24.4010  -12.2200   -0.3100 C   0  0  1  0  0  0  0  0  0  0  0  0
   25.7120  -12.8190   -0.5270 N   0  0  0  0  0  0  0  0  0  0  0  0
   25.7070  -13.3980   -1.3820 H   0  0  0  0  0  0  0  0  0  0  0  0
   26.6320  -11.7810   -0.7800 O   0  0  0  0  0  0  0  0  0  0  0  0
   25.9210  -10.6100   -1.1800 C   0  0  2  0  0  0  0  0  0  0  0  0
   26.3360  -10.2260   -2.6110 C   0  0  1  0  0  0  0  0  0  0  0  0
   27.0390   -8.8810   -2.7720 C   0  0  2  0  0  0  0  0  0  0  0  0
   27.7300   -8.3370   -1.5110 C   0  0  1  0  0  0  0  0  0  0  0  0
   27.6300   -9.3170   -0.3590 C   0  0  2  0  0  0  0  0  0  0  0  0
   26.2470   -9.6280   -0.2100 O   0  0  0  0  0  0  0  0  0  0  0  0
   24.4400  -10.9060   -1.0540 C   0  0  0  0  0  0  0  0  0  0  0  0
   23.3010  -13.1180   -0.8160 C   0  0  0  0  0  0  0  0  0  0  0  0
   23.5860  -14.2860   -1.5260 C   0  0  0  0  0  0  0  0  0  0  0  0
   22.5930  -15.1260   -1.9820 C   0  0  0  0  0  0  0  0  0  0  0  0
   21.2550  -14.8030   -1.7510 C   0  0  0  0  0  0  0  0  0  0  0  0
   20.2390  -15.6300   -2.2020 C   0  0  0  0  0  0  0  0  0  0  0  0
   18.9110  -15.2940   -1.9790 C   0  0  0  0  0  0  0  0  0  0  0  0
   18.5970  -14.1340   -1.2910 C   0  0  0  0  0  0  0  0  0  0  0  0
   19.5950  -13.3020   -0.8260 C   0  0  0  0  0  0  0  0  0  0  0  0
   20.9420  -13.6200   -1.0560 C   0  0  0  0  0  0  0  0  0  0  0  0
   21.9580  -12.7970   -0.5970 C   0  0  0  0  0  0  0  0  0  0  0  0
   26.1000   -7.9180   -3.2570 O   0  0  0  0  0  0  0  0  0  0  0  0
   25.8350   -8.1840   -4.1700 H   0  0  0  0  0  0  0  0  0  0  0  0
   27.1100  -11.2550   -3.2340 O   0  0  0  0  0  0  0  0  0  0  0  0
   28.0540  -11.1710   -2.9870 H   0  0  0  0  0  0  0  0  0  0  0  0
   29.0920   -8.0360   -1.7830 O   0  0  0  0  0  0  0  0  0  0  0  0
   29.6380   -8.8440   -1.7530 H   0  0  0  0  0  0  0  0  0  0  0  0
   28.2140   -8.8230    0.9700 C   0  0  0  0  0  0  0  0  0  0  0  0
   27.9710   -7.4170    1.0370 O   0  0  0  0  0  0  0  0  0  0  0  0
   28.1310   -7.0240    0.1490 H   0  0  0  0  0  0  0  0  0  0  0  0
  1 12  1  6  0  0  0
  2  1  1  0  0  0  0
  3  2  1  0  0  0  0
  4  2  1  0  0  0  0
  5 11  1  1  0  0  0
  5  4  1  0  0  0  0
  5 10  1  0  0  0  0
  6  5  1  1  0  0  0
  7 22  1  1  0  0  0
  7  6  1  0  0  0  0
  7  8  1  0  0  0  0
  8 26  1  6  0  0  0
  8  9  1  0  0  0  0
  9 10  1  0  0  0  0
  9 28  1  1  0  0  0
 11  1  1  0  0  0  0
 12 21  1  0  0  0  0
 13 12  2  0  0  0  0
 14 15  2  0  0  0  0
 14 13  1  0  0  0  0
 15 20  1  0  0  0  0
 16 17  2  0  0  0  0
 16 15  1  0  0  0  0
 17 18  1  0  0  0  0
 18 19  2  0  0  0  0
 20 19  1  0  0  0  0
 20 21  2  0  0  0  0
 23 22  1  0  0  0  0
 24 25  1  0  0  0  0
 24  6  1  0  0  0  0
 26 27  1  0  0  0  0
 28 29  1  0  0  0  0
 30 29  1  0  0  0  0
M  END
>  <minimizedAffinity>
-8.68647099

$$$$

 OpenBabel12271915523D

 30 33  0  0  1  0  0  0  0  0999 V2000
   17.7670  -12.2210   -1.1860 C   0  0  1  0  0  0  0  0  0  0  0  0
   17.8650  -11.1690   -0.1830 N   0  0  0  0  0  0  0  0  0  0  0  0
   18.8340  -10.8180   -0.1220 H   0  0  0  0  0  0  0  0  0  0  0  0
   17.0940  -10.0730   -0.6220 O   0  0  0  0  0  0  0  0  0  0  0  0
   16.8800  -10.1810   -2.0280 C   0  0  2  0  0  0  0  0  0  0  0  0
   17.5170   -8.9730   -2.7360 C   0  0  1  0  0  0  0  0  0  0  0  0
   16.5610   -8.0400   -3.4730 C   0  0  2  0  0  0  0  0  0  0  0  0
   15.1010   -8.0710   -2.9920 C   0  0  1  0  0  0  0  0  0  0  0  0
   14.9290   -8.9940   -1.8020 C   0  0  2  0  0  0  0  0  0  0  0  0
   15.4720  -10.2540   -2.1850 O   0  0  0  0  0  0  0  0  0  0  0  0
   17.4610  -11.5060   -2.4800 C   0  0  0  0  0  0  0  0  0  0  0  0
   19.0490  -13.0120   -1.2730 C   0  0  0  0  0  0  0  0  0  0  0  0
   19.0480  -14.3570   -1.6490 C   0  0  0  0  0  0  0  0  0  0  0  0
   20.2110  -15.0900   -1.7480 C   0  0  0  0  0  0  0  0  0  0  0  0
   21.4340  -14.4880   -1.4490 C   0  0  0  0  0  0  0  0  0  0  0  0
   22.6160  -15.2040   -1.5390 C   0  0  0  0  0  0  0  0  0  0  0  0
   23.8270  -14.6010   -1.2260 C   0  0  0  0  0  0  0  0  0  0  0  0
   23.8570  -13.2710   -0.8360 C   0  0  0  0  0  0  0  0  0  0  0  0
   22.6910  -12.5390   -0.7500 C   0  0  0  0  0  0  0  0  0  0  0  0
   21.4590  -13.1390   -1.0480 C   0  0  0  0  0  0  0  0  0  0  0  0
   20.2770  -12.4190   -0.9670 C   0  0  0  0  0  0  0  0  0  0  0  0
   16.6110   -8.3280   -4.8720 O   0  0  0  0  0  0  0  0  0  0  0  0
   17.5110   -8.0900   -5.2000 H   0  0  0  0  0  0  0  0  0  0  0  0
   18.3480   -8.2160   -1.8500 O   0  0  0  0  0  0  0  0  0  0  0  0
   17.8100   -7.5750   -1.3410 H   0  0  0  0  0  0  0  0  0  0  0  0
   14.6580   -6.7610   -2.6650 O   0  0  0  0  0  0  0  0  0  0  0  0
   14.9620   -6.5050   -1.7750 H   0  0  0  0  0  0  0  0  0  0  0  0
   13.4880   -9.1590   -1.3070 C   0  0  0  0  0  0  0  0  0  0  0  0
   13.5430   -9.2440    0.1180 O   0  0  0  0  0  0  0  0  0  0  0  0
   14.3130   -9.8000    0.3740 H   0  0  0  0  0  0  0  0  0  0  0  0
  1 12  1  6  0  0  0
  1  2  1  0  0  0  0
  2  3  1  0  0  0  0
  4  2  1  0  0  0  0
  5 11  1  6  0  0  0
  5  4  1  0  0  0  0
  6  5  1  1  0  0  0
  6 24  1  0  0  0  0
  7 22  1  6  0  0  0
  7  8  1  0  0  0  0
  7  6  1  0  0  0  0
  8 26  1  1  0  0  0
  8  9  1  0  0  0  0
  9 28  1  6  0  0  0
 10  5  1  0  0  0  0
 10  9  1  0  0  0  0
 11  1  1  0  0  0  0
 12 21  2  0  0  0  0
 13 12  1  0  0  0  0
 14 13  2  0  0  0  0
 14 15  1  0  0  0  0
 15 20  1  0  0  0  0
 16 15  2  0  0  0  0
 16 17  1  0  0  0  0
 17 18  2  0  0  0  0
 18 19  1  0  0  0  0
 20 21  1  0  0  0  0
 20 19  2  0  0  0  0
 23 22  1  0  0  0  0
 24 25  1  0  0  0  0
 26 27  1  0  0  0  0
 28 29  1  0  0  0  0
 29 30  1  0  0  0  0
M  END
>  <minimizedAffinity>
-8.43289757

$$$$

 OpenBabel12271915523D

 30 33  0  0  1  0  0  0  0  0999 V2000
   23.7460  -12.6330   -0.9320 C   0  0  1  0  0  0  0  0  0  0  0  0
   22.6140  -12.3840   -0.0480 N   0  0  0  0  0  0  0  0  0  0  0  0
   22.5670  -11.3840    0.2040 H   0  0  0  0  0  0  0  0  0  0  0  0
   21.4300  -12.6460   -0.7680 O   0  0  0  0  0  0  0  0  0  0  0  0
   21.7120  -12.6120   -2.1660 C   0  0  2  0  0  0  0  0  0  0  0  0
   20.8950  -11.4860   -2.8230 C   0  0  1  0  0  0  0  0  0  0  0  0
   19.8600  -11.9170   -3.8580 C   0  0  2  0  0  0  0  0  0  0  0  0
   19.3650  -13.3670   -3.7360 C   0  0  1  0  0  0  0  0  0  0  0  0
   19.9700  -14.0610   -2.5330 C   0  0  2  0  0  0  0  0  0  0  0  0
   21.3820  -13.9060   -2.6440 O   0  0  0  0  0  0  0  0  0  0  0  0
   23.2080  -12.4300   -2.3290 C   0  0  0  0  0  0  0  0  0  0  0  0
   24.8890  -11.6970   -0.6300 C   0  0  0  0  0  0  0  0  0  0  0  0
   24.7580  -10.3160   -0.7900 C   0  0  0  0  0  0  0  0  0  0  0  0
   25.7880   -9.4460   -0.5040 C   0  0  0  0  0  0  0  0  0  0  0  0
   27.0120   -9.9470   -0.0580 C   0  0  0  0  0  0  0  0  0  0  0  0
   28.0620   -9.0930    0.2340 C   0  0  0  0  0  0  0  0  0  0  0  0
   29.2800   -9.6000    0.6650 C   0  0  0  0  0  0  0  0  0  0  0  0
   29.4440  -10.9670    0.8190 C   0  0  0  0  0  0  0  0  0  0  0  0
   28.4060  -11.8340    0.5420 C   0  0  0  0  0  0  0  0  0  0  0  0
   27.1740  -11.3370    0.0920 C   0  0  0  0  0  0  0  0  0  0  0  0
   26.1210  -12.1920   -0.1910 C   0  0  0  0  0  0  0  0  0  0  0  0
   20.3890  -11.6990   -5.1680 O   0  0  0  0  0  0  0  0  0  0  0  0
   20.4950  -10.7260   -5.2950 H   0  0  0  0  0  0  0  0  0  0  0  0
   20.2830  -10.6360   -1.8490 O   0  0  0  0  0  0  0  0  0  0  0  0
   19.4310  -11.0160   -1.5500 H   0  0  0  0  0  0  0  0  0  0  0  0
   17.9460  -13.4020   -3.6610 O   0  0  0  0  0  0  0  0  0  0  0  0
   17.6420  -13.2060   -2.7550 H   0  0  0  0  0  0  0  0  0  0  0  0
   19.6030  -15.5410   -2.3790 C   0  0  0  0  0  0  0  0  0  0  0  0
   19.0710  -15.9720   -3.6330 O   0  0  0  0  0  0  0  0  0  0  0  0
   18.4920  -15.2630   -3.9940 H   0  0  0  0  0  0  0  0  0  0  0  0
  1 12  1  1  0  0  0
  1  2  1  0  0  0  0
  2  3  1  0  0  0  0
  4  2  1  0  0  0  0
  5 11  1  6  0  0  0
  5  4  1  0  0  0  0
  6  5  1  1  0  0  0
  6 24  1  0  0  0  0
  7 22  1  6  0  0  0
  7  8  1  0  0  0  0
  7  6  1  0  0  0  0
  8 26  1  1  0  0  0
  8  9  1  0  0  0  0
  9 28  1  6  0  0  0
 10  9  1  0  0  0  0
 10  5  1  0  0  0  0
 11  1  1  0  0  0  0
 12 21  1  0  0  0  0
 13 12  2  0  0  0  0
 13 14  1  0  0  0  0
 14 15  2  0  0  0  0
 15 20  1  0  0  0  0
 15 16  1  0  0  0  0
 16 17  2  0  0  0  0
 17 18  1  0  0  0  0
 19 18  2  0  0  0  0
 20 19  1  0  0  0  0
 21 20  2  0  0  0  0
 23 22  1  0  0  0  0
 24 25  1  0  0  0  0
 26 27  1  0  0  0  0
 29 28  1  0  0  0  0
 30 29  1  0  0  0  0
M  END
>  <minimizedAffinity>
-8.19999027

$$$$

 OpenBabel12271915523D

 30 33  0  0  1  0  0  0  0  0999 V2000
   25.9930  -11.9490   -0.9060 C   0  0  1  0  0  0  0  0  0  0  0  0
   26.3770  -11.4520   -2.2210 N   0  0  0  0  0  0  0  0  0  0  0  0
   25.5990  -10.9250   -2.6490 H   0  0  0  0  0  0  0  0  0  0  0  0
   27.4160  -10.5140   -2.0480 O   0  0  0  0  0  0  0  0  0  0  0  0
   27.4120  -10.0510   -0.6980 C   0  0  2  0  0  0  0  0  0  0  0  0
   27.1430   -8.5370   -0.6790 C   0  0  1  0  0  0  0  0  0  0  0  0
   28.2640   -7.6580   -0.1320 C   0  0  2  0  0  0  0  0  0  0  0  0
   29.6730   -8.2710   -0.1850 C   0  0  1  0  0  0  0  0  0  0  0  0
   29.6620   -9.6280   -0.8590 C   0  0  2  0  0  0  0  0  0  0  0  0
   28.6830  -10.4100   -0.1800 O   0  0  0  0  0  0  0  0  0  0  0  0
   26.3670  -10.8480    0.0570 C   0  0  0  0  0  0  0  0  0  0  0  0
   24.5190  -12.2630   -0.8520 C   0  0  0  0  0  0  0  0  0  0  0  0
   23.5890  -11.3130   -0.4250 C   0  0  0  0  0  0  0  0  0  0  0  0
   22.2370  -11.5800   -0.3840 C   0  0  0  0  0  0  0  0  0  0  0  0
   21.7690  -12.8390   -0.7610 C   0  0  0  0  0  0  0  0  0  0  0  0
   20.4160  -13.1310   -0.7270 C   0  0  0  0  0  0  0  0  0  0  0  0
   19.9610  -14.3900   -1.0910 C   0  0  0  0  0  0  0  0  0  0  0  0
   20.8620  -15.3580   -1.5050 C   0  0  0  0  0  0  0  0  0  0  0  0
   22.2130  -15.0840   -1.5550 C   0  0  0  0  0  0  0  0  0  0  0  0
   22.6890  -13.8200   -1.1760 C   0  0  0  0  0  0  0  0  0  0  0  0
   24.0430  -13.5260   -1.2200 C   0  0  0  0  0  0  0  0  0  0  0  0
   27.9540   -7.2860    1.2120 O   0  0  0  0  0  0  0  0  0  0  0  0
   27.1550   -6.7060    1.1910 H   0  0  0  0  0  0  0  0  0  0  0  0
   26.7280   -8.0540   -1.9610 O   0  0  0  0  0  0  0  0  0  0  0  0
   27.5080   -7.8620   -2.5220 H   0  0  0  0  0  0  0  0  0  0  0  0
   30.5690   -7.3960   -0.8580 O   0  0  0  0  0  0  0  0  0  0  0  0
   30.4770   -7.4830   -1.8250 H   0  0  0  0  0  0  0  0  0  0  0  0
   31.0100  -10.3570   -0.8790 C   0  0  0  0  0  0  0  0  0  0  0  0
   31.7540   -9.8300   -1.9790 O   0  0  0  0  0  0  0  0  0  0  0  0
   31.1470   -9.7070   -2.7440 H   0  0  0  0  0  0  0  0  0  0  0  0
  1 12  1  6  0  0  0
  1 11  1  0  0  0  0
  2  4  1  0  0  0  0
  2  1  1  0  0  0  0
  3  2  1  0  0  0  0
  4  5  1  0  0  0  0
  5 10  1  0  0  0  0
  5 11  1  1  0  0  0
  6  5  1  6  0  0  0
  6  7  1  0  0  0  0
  7 22  1  1  0  0  0
  8 26  1  6  0  0  0
  8  7  1  0  0  0  0
  9 28  1  1  0  0  0
  9  8  1  0  0  0  0
  9 10  1  0  0  0  0
 12 13  2  0  0  0  0
 13 14  1  0  0  0  0
 15 16  1  0  0  0  0
 15 14  2  0  0  0  0
 17 16  2  0  0  0  0
 18 17  1  0  0  0  0
 19 18  2  0  0  0  0
 19 20  1  0  0  0  0
 20 15  1  0  0  0  0
 21 20  2  0  0  0  0
 21 12  1  0  0  0  0
 23 22  1  0  0  0  0
 24  6  1  0  0  0  0
 25 24  1  0  0  0  0
 27 26  1  0  0  0  0
 29 28  1  0  0  0  0
 30 29  1  0  0  0  0
M  END
>  <minimizedAffinity>
-8.18854713

$$$$

 OpenBabel12271915523D

 30 33  0  0  1  0  0  0  0  0999 V2000
   17.8260  -11.4000   -0.9800 C   0  0  1  0  0  0  0  0  0  0  0  0
   17.8030  -10.2380   -0.1000 N   0  0  0  0  0  0  0  0  0  0  0  0
   18.6850   -9.7070   -0.1800 H   0  0  0  0  0  0  0  0  0  0  0  0
   16.7950   -9.3630   -0.5570 O   0  0  0  0  0  0  0  0  0  0  0  0
   16.4830   -9.6730   -1.9140 C   0  0  2  0  0  0  0  0  0  0  0  0
   16.8040   -8.4580   -2.8010 C   0  0  1  0  0  0  0  0  0  0  0  0
   15.6220   -7.8110   -3.5160 C   0  0  2  0  0  0  0  0  0  0  0  0
   14.2450   -8.0580   -2.8780 C   0  0  1  0  0  0  0  0  0  0  0  0
   14.3640   -8.8510   -1.5930 C   0  0  2  0  0  0  0  0  0  0  0  0
   15.1090  -10.0240   -1.9070 O   0  0  0  0  0  0  0  0  0  0  0  0
   17.2710  -10.9090   -2.2960 C   0  0  0  0  0  0  0  0  0  0  0  0
   19.2250  -11.9430   -1.1280 C   0  0  0  0  0  0  0  0  0  0  0  0
   20.3370  -11.1000   -1.0980 C   0  0  0  0  0  0  0  0  0  0  0  0
   21.6230  -11.5820   -1.2180 C   0  0  0  0  0  0  0  0  0  0  0  0
   21.8350  -12.9500   -1.3920 C   0  0  0  0  0  0  0  0  0  0  0  0
   23.1170  -13.4580   -1.5160 C   0  0  0  0  0  0  0  0  0  0  0  0
   23.3180  -14.8190   -1.7030 C   0  0  0  0  0  0  0  0  0  0  0  0
   22.2320  -15.6780   -1.7510 C   0  0  0  0  0  0  0  0  0  0  0  0
   20.9470  -15.1920   -1.6200 C   0  0  0  0  0  0  0  0  0  0  0  0
   20.7280  -13.8170   -1.4450 C   0  0  0  0  0  0  0  0  0  0  0  0
   19.4450  -13.3110   -1.3120 C   0  0  0  0  0  0  0  0  0  0  0  0
   15.6030   -8.2460   -4.8780 O   0  0  0  0  0  0  0  0  0  0  0  0
   16.4060   -7.8850   -5.3240 H   0  0  0  0  0  0  0  0  0  0  0  0
   17.5450   -7.4610   -2.0900 O   0  0  0  0  0  0  0  0  0  0  0  0
   16.9390   -6.8770   -1.5890 H   0  0  0  0  0  0  0  0  0  0  0  0
   13.5840   -6.8240   -2.6340 O   0  0  0  0  0  0  0  0  0  0  0  0
   13.9090   -6.4130   -1.8110 H   0  0  0  0  0  0  0  0  0  0  0  0
   13.0330   -9.2220   -0.9290 C   0  0  0  0  0  0  0  0  0  0  0  0
   13.2760   -9.3060    0.4760 O   0  0  0  0  0  0  0  0  0  0  0  0
   14.1430   -9.7470    0.6240 H   0  0  0  0  0  0  0  0  0  0  0  0
  1 12  1  6  0  0  0
  1  2  1  0  0  0  0
  3  2  1  0  0  0  0
  4  2  1  0  0  0  0
  5 11  1  6  0  0  0
  5 10  1  0  0  0  0
  5  4  1  0  0  0  0
  6 24  1  0  0  0  0
  6  5  1  1  0  0  0
  7 22  1  6  0  0  0
  7  8  1  0  0  0  0
  7  6  1  0  0  0  0
  8 26  1  1  0  0  0
  8  9  1  0  0  0  0
  9 28  1  6  0  0  0
 10  9  1  0  0  0  0
 11  1  1  0  0  0  0
 12 13  1  0  0  0  0
 14 13  2  0  0  0  0
 15 14  1  0  0  0  0
 16 15  2  0  0  0  0
 17 16  1  0  0  0  0
 18 17  2  0  0  0  0
 18 19  1  0  0  0  0
 19 20  2  0  0  0  0
 20 15  1  0  0  0  0
 20 21  1  0  0  0  0
 21 12  2  0  0  0  0
 23 22  1  0  0  0  0
 24 25  1  0  0  0  0
 26 27  1  0  0  0  0
 28 29  1  0  0  0  0
 29 30  1  0  0  0  0
M  END
>  <minimizedAffinity>
-8.1465435

$$$$

 OpenBabel12271915523D

 30 33  0  0  1  0  0  0  0  0999 V2000
   22.4370  -11.2780   -2.1210 C   0  0  1  0  0  0  0  0  0  0  0  0
   22.8690  -11.1210   -0.7380 N   0  0  0  0  0  0  0  0  0  0  0  0
   23.0280  -12.0430   -0.3030 H   0  0  0  0  0  0  0  0  0  0  0  0
   24.1290  -10.4860   -0.7430 O   0  0  0  0  0  0  0  0  0  0  0  0
   24.7240  -10.6330   -2.0320 C   0  0  2  0  0  0  0  0  0  0  0  0
   26.0340  -11.4290   -1.9000 C   0  0  1  0  0  0  0  0  0  0  0  0
   27.3150  -10.6890   -2.2770 C   0  0  2  0  0  0  0  0  0  0  0  0
   27.2410   -9.1550   -2.2070 C   0  0  1  0  0  0  0  0  0  0  0  0
   25.8950   -8.6890   -1.6900 C   0  0  2  0  0  0  0  0  0  0  0  0
   24.9080   -9.3100   -2.5090 O   0  0  0  0  0  0  0  0  0  0  0  0
   23.7100  -11.3090   -2.9320 C   0  0  0  0  0  0  0  0  0  0  0  0
   21.6290  -12.5400   -2.2990 C   0  0  0  0  0  0  0  0  0  0  0  0
   22.1550  -13.7910   -1.9710 C   0  0  0  0  0  0  0  0  0  0  0  0
   21.4250  -14.9510   -2.1130 C   0  0  0  0  0  0  0  0  0  0  0  0
   20.1250  -14.8920   -2.6160 C   0  0  0  0  0  0  0  0  0  0  0  0
   19.3720  -16.0450   -2.7690 C   0  0  0  0  0  0  0  0  0  0  0  0
   18.0840  -15.9780   -3.2820 C   0  0  0  0  0  0  0  0  0  0  0  0
   17.5400  -14.7520   -3.6290 C   0  0  0  0  0  0  0  0  0  0  0  0
   18.2710  -13.5920   -3.4750 C   0  0  0  0  0  0  0  0  0  0  0  0
   19.5800  -13.6450   -2.9710 C   0  0  0  0  0  0  0  0  0  0  0  0
   20.3280  -12.4900   -2.8100 C   0  0  0  0  0  0  0  0  0  0  0  0
   27.7180  -11.0900   -3.5890 O   0  0  0  0  0  0  0  0  0  0  0  0
   27.9690  -12.0440   -3.5520 H   0  0  0  0  0  0  0  0  0  0  0  0
   26.1740  -12.0100   -0.6000 O   0  0  0  0  0  0  0  0  0  0  0  0
   26.5600  -11.3620    0.0250 H   0  0  0  0  0  0  0  0  0  0  0  0
   28.2850   -8.6450   -1.3880 O   0  0  0  0  0  0  0  0  0  0  0  0
   28.0510   -8.7160   -0.4440 H   0  0  0  0  0  0  0  0  0  0  0  0
   25.6950   -7.1690   -1.6690 C   0  0  0  0  0  0  0  0  0  0  0  0
   26.5670   -6.6190   -2.6570 O   0  0  0  0  0  0  0  0  0  0  0  0
   27.4290   -7.0930   -2.6210 H   0  0  0  0  0  0  0  0  0  0  0  0
  1 12  1  1  0  0  0
  1  2  1  0  0  0  0
  2  3  1  0  0  0  0
  4  2  1  0  0  0  0
  5 11  1  6  0  0  0
  5  4  1  0  0  0  0
  6  5  1  1  0  0  0
  6 24  1  0  0  0  0
  7 22  1  6  0  0  0
  7  8  1  0  0  0  0
  7  6  1  0  0  0  0
  8  9  1  0  0  0  0
  8 26  1  1  0  0  0
  9 28  1  6  0  0  0
 10  5  1  0  0  0  0
 10  9  1  0  0  0  0
 11  1  1  0  0  0  0
 12 13  2  0  0  0  0
 14 13  1  0  0  0  0
 15 14  2  0  0  0  0
 16 15  1  0  0  0  0
 17 16  2  0  0  0  0
 18 19  2  0  0  0  0
 18 17  1  0  0  0  0
 19 20  1  0  0  0  0
 20 21  2  0  0  0  0
 20 15  1  0  0  0  0
 21 12  1  0  0  0  0
 22 23  1  0  0  0  0
 24 25  1  0  0  0  0
 26 27  1  0  0  0  0
 29 30  1  0  0  0  0
 29 28  1  0  0  0  0
M  END
>  <minimizedAffinity>
-8.03744316

$$$$
