
 OpenBabel12271915513D

 30 33  0  0  1  0  0  0  0  0999 V2000
   21.1200  -13.9810   -1.2440 C   0  0  1  0  0  0  0  0  0  0  0  0
   22.1870  -14.2130   -2.2410 N   0  0  0  0  0  0  0  0  0  0  0  0
   22.9940  -14.5480   -1.7500 H   0  0  0  0  0  0  0  0  0  0  0  0
   22.6870  -12.7860   -2.4890 O   0  0  0  0  0  0  0  0  0  0  0  0
   22.5500  -12.1120   -1.2340 C   0  0  2  0  0  0  0  0  0  0  0  0
   22.7980  -10.5630   -1.4170 C   0  0  1  0  0  0  0  0  0  0  0  0
   23.7910   -9.9950   -0.3620 C   0  0  2  0  0  0  0  0  0  0  0  0
   25.0280  -10.9140   -0.0960 C   0  0  1  0  0  0  0  0  0  0  0  0
   24.7790  -12.3540   -0.6150 C   0  0  2  0  0  0  0  0  0  0  0  0
   23.4400  -12.6950   -0.2560 O   0  0  0  0  0  0  0  0  0  0  0  0
   21.1790  -12.4730   -0.8620 C   0  0  0  0  0  0  0  0  0  0  0  0
   19.7980  -14.4580   -1.8000 C   0  0  0  0  0  0  0  0  0  0  0  0
   18.6420  -13.8580   -1.3260 C   0  0  0  0  0  0  0  0  0  0  0  0
   17.3800  -14.2830   -1.7360 C   0  0  0  0  0  0  0  0  0  0  0  0
   17.3080  -15.3310   -2.6700 C   0  0  0  0  0  0  0  0  0  0  0  0
   16.0530  -15.7650   -3.1070 C   0  0  0  0  0  0  0  0  0  0  0  0
   15.9670  -16.8080   -4.0530 C   0  0  0  0  0  0  0  0  0  0  0  0
   17.1310  -17.4090   -4.5370 C   0  0  0  0  0  0  0  0  0  0  0  0
   18.3900  -16.9940   -4.1060 C   0  0  0  0  0  0  0  0  0  0  0  0
   18.4680  -15.9370   -3.1710 C   0  0  0  0  0  0  0  0  0  0  0  0
   19.7230  -15.4970   -2.7470 C   0  0  0  0  0  0  0  0  0  0  0  0
   23.0700   -9.6920    0.8510 O   0  0  0  0  0  0  0  0  0  0  0  0
   23.3550  -10.2960    1.5450 H   0  0  0  0  0  0  0  0  0  0  0  0
   23.3470  -10.3320   -2.7480 O   0  0  0  0  0  0  0  0  0  0  0  0
   23.7750   -9.4950   -2.7620 H   0  0  0  0  0  0  0  0  0  0  0  0
   26.1500  -10.2510   -0.7330 O   0  0  0  0  0  0  0  0  0  0  0  0
   26.0460  -10.3780   -1.6750 H   0  0  0  0  0  0  0  0  0  0  0  0
   25.7240  -13.4130   -0.0350 C   0  0  0  0  0  0  0  0  0  0  0  0
   25.4040  -14.7060   -0.5520 O   0  0  0  0  0  0  0  0  0  0  0  0
   25.3960  -15.3120    0.1850 H   0  0  0  0  0  0  0  0  0  0  0  0
  1 12  1  6  0  0  0
  1 11  1  0  0  0  0
  2  3  1  0  0  0  0
  2  1  1  0  0  0  0
  4  2  1  0  0  0  0
  4  5  1  0  0  0  0
  5 11  1  1  0  0  0
  5 10  1  0  0  0  0
  6  5  1  1  0  0  0
  6  7  1  0  0  0  0
  7  8  1  0  0  0  0
  7 22  1  1  0  0  0
  8 26  1  6  0  0  0
  9 10  1  0  0  0  0
  9  8  1  0  0  0  0
  9 28  1  1  0  0  0
 12 13  2  0  0  0  0
 14 13  1  0  0  0  0
 15 14  2  0  0  0  0
 16 15  1  0  0  0  0
 17 16  2  0  0  0  0
 18 19  2  0  0  0  0
 18 17  1  0  0  0  0
 19 20  1  0  0  0  0
 20 21  2  0  0  0  0
 20 15  1  0  0  0  0
 21 12  1  0  0  0  0
 22 23  1  0  0  0  0
 24  6  1  0  0  0  0
 25 24  1  0  0  0  0
 27 26  1  0  0  0  0
 29 28  1  0  0  0  0
 29 30  1  0  0  0  0
M  END
>  <minimizedAffinity>
-10.3225346

$$$$

 OpenBabel12271915513D

 30 33  0  0  1  0  0  0  0  0999 V2000
   21.4250  -13.2360   -1.1870 C   0  0  1  0  0  0  0  0  0  0  0  0
   22.5050  -13.7520   -2.0540 N   0  0  0  0  0  0  0  0  0  0  0  0
   23.2830  -13.9840   -1.4650 H   0  0  0  0  0  0  0  0  0  0  0  0
   23.0770  -12.4540   -2.6330 O   0  0  0  0  0  0  0  0  0  0  0  0
   22.9390  -11.4810   -1.5920 C   0  0  2  0  0  0  0  0  0  0  0  0
   23.2630  -10.0390   -2.1470 C   0  0  1  0  0  0  0  0  0  0  0  0
   24.2540   -9.2620   -1.2320 C   0  0  2  0  0  0  0  0  0  0  0  0
   25.4400  -10.1310   -0.7000 C   0  0  1  0  0  0  0  0  0  0  0  0
   25.1380  -11.6450   -0.8510 C   0  0  2  0  0  0  0  0  0  0  0  0
   23.7750  -11.8330   -0.4670 O   0  0  0  0  0  0  0  0  0  0  0  0
   21.5440  -11.6840   -1.1920 C   0  0  0  0  0  0  0  0  0  0  0  0
   20.0960  -13.7860   -1.6540 C   0  0  0  0  0  0  0  0  0  0  0  0
   18.9430  -13.2110   -1.1460 C   0  0  0  0  0  0  0  0  0  0  0  0
   17.6800  -13.7000   -1.4730 C   0  0  0  0  0  0  0  0  0  0  0  0
   17.6030  -14.7890   -2.3580 C   0  0  0  0  0  0  0  0  0  0  0  0
   16.3470  -15.2890   -2.7110 C   0  0  0  0  0  0  0  0  0  0  0  0
   16.2550  -16.3750   -3.6080 C   0  0  0  0  0  0  0  0  0  0  0  0
   17.4160  -16.9520   -4.1260 C   0  0  0  0  0  0  0  0  0  0  0  0
   18.6780  -16.4710   -3.7770 C   0  0  0  0  0  0  0  0  0  0  0  0
   18.7600  -15.3720   -2.8920 C   0  0  0  0  0  0  0  0  0  0  0  0
   20.0160  -14.8680   -2.5520 C   0  0  0  0  0  0  0  0  0  0  0  0
   23.5170   -8.6360   -0.1610 O   0  0  0  0  0  0  0  0  0  0  0  0
   23.7560   -9.0560    0.6720 H   0  0  0  0  0  0  0  0  0  0  0  0
   23.8570  -10.1710   -3.4720 O   0  0  0  0  0  0  0  0  0  0  0  0
   24.3230   -9.3810   -3.6800 H   0  0  0  0  0  0  0  0  0  0  0  0
   26.6080   -9.6940   -1.4410 O   0  0  0  0  0  0  0  0  0  0  0  0
   26.5220  -10.0490   -2.3240 H   0  0  0  0  0  0  0  0  0  0  0  0
   26.0180  -12.5590    0.0100 C   0  0  0  0  0  0  0  0  0  0  0  0
   27.3310  -12.0110    0.1400 O   0  0  0  0  0  0  0  0  0  0  0  0
   27.9510  -12.7200   -0.0130 H   0  0  0  0  0  0  0  0  0  0  0  0
  1 12  1  6  0  0  0
  2  3  1  0  0  0  0
  2  1  1  0  0  0  0
  4  2  1  0  0  0  0
  4  5  1  0  0  0  0
  5 11  1  1  0  0  0
  5 10  1  0  0  0  0
  6  5  1  1  0  0  0
  6  7  1  0  0  0  0
  7  8  1  0  0  0  0
  7 22  1  1  0  0  0
  8 26  1  6  0  0  0
  9  8  1  0  0  0  0
  9 10  1  0  0  0  0
  9 28  1  1  0  0  0
 11  1  1  0  0  0  0
 12 13  2  0  0  0  0
 14 13  1  0  0  0  0
 15 14  2  0  0  0  0
 16 15  1  0  0  0  0
 17 16  2  0  0  0  0
 18 19  2  0  0  0  0
 18 17  1  0  0  0  0
 19 20  1  0  0  0  0
 20 21  2  0  0  0  0
 20 15  1  0  0  0  0
 21 12  1  0  0  0  0
 22 23  1  0  0  0  0
 24  6  1  0  0  0  0
 25 24  1  0  0  0  0
 27 26  1  0  0  0  0
 28 29  1  0  0  0  0
 30 29  1  0  0  0  0
M  END
>  <minimizedAffinity>
-9.29417133

$$$$

 OpenBabel12271915513D

 30 33  0  0  1  0  0  0  0  0999 V2000
   21.9250  -13.8100   -1.3200 C   0  0  1  0  0  0  0  0  0  0  0  0
   23.0440  -13.8900   -2.2830 N   0  0  0  0  0  0  0  0  0  0  0  0
   23.8770  -14.0940   -1.7650 H   0  0  0  0  0  0  0  0  0  0  0  0
   23.3310  -12.4070   -2.5400 O   0  0  0  0  0  0  0  0  0  0  0  0
   23.0580  -11.7470   -1.3000 C   0  0  2  0  0  0  0  0  0  0  0  0
   23.0760  -10.1810   -1.5000 C   0  0  1  0  0  0  0  0  0  0  0  0
   23.9400   -9.4580   -0.4270 C   0  0  2  0  0  0  0  0  0  0  0  0
   25.2940  -10.1760   -0.1140 C   0  0  1  0  0  0  0  0  0  0  0  0
   25.2790  -11.6440   -0.6160 C   0  0  2  0  0  0  0  0  0  0  0  0
   23.9960  -12.1780   -0.2890 O   0  0  0  0  0  0  0  0  0  0  0  0
   21.7460  -12.3060   -0.9600 C   0  0  0  0  0  0  0  0  0  0  0  0
   20.7060  -14.4870   -1.9040 C   0  0  0  0  0  0  0  0  0  0  0  0
   20.9050  -15.4350   -2.8940 C   0  0  0  0  0  0  0  0  0  0  0  0
   19.8340  -16.0590   -3.5310 C   0  0  0  0  0  0  0  0  0  0  0  0
   18.5330  -15.7140   -3.1240 C   0  0  0  0  0  0  0  0  0  0  0  0
   17.4430  -16.3350   -3.7400 C   0  0  0  0  0  0  0  0  0  0  0  0
   16.1330  -16.0070   -3.3330 C   0  0  0  0  0  0  0  0  0  0  0  0
   15.9310  -15.0560   -2.3310 C   0  0  0  0  0  0  0  0  0  0  0  0
   17.0070  -14.4200   -1.7130 C   0  0  0  0  0  0  0  0  0  0  0  0
   18.3170  -14.7680   -2.1140 C   0  0  0  0  0  0  0  0  0  0  0  0
   19.4030  -14.1540   -1.4880 C   0  0  0  0  0  0  0  0  0  0  0  0
   23.1470   -9.2530    0.7600 O   0  0  0  0  0  0  0  0  0  0  0  0
   23.4990   -9.7980    1.4720 H   0  0  0  0  0  0  0  0  0  0  0  0
   23.6230   -9.8850   -2.8190 O   0  0  0  0  0  0  0  0  0  0  0  0
   23.9200   -8.9930   -2.8340 H   0  0  0  0  0  0  0  0  0  0  0  0
   26.3220   -9.3600   -0.7300 O   0  0  0  0  0  0  0  0  0  0  0  0
   26.2660   -9.5120   -1.6720 H   0  0  0  0  0  0  0  0  0  0  0  0
   26.3550  -12.5420    0.0060 C   0  0  0  0  0  0  0  0  0  0  0  0
   26.1530  -13.9030   -0.3780 O   0  0  0  0  0  0  0  0  0  0  0  0
   26.2410  -14.4360    0.4090 H   0  0  0  0  0  0  0  0  0  0  0  0
  1 12  1  6  0  0  0
  1 11  1  0  0  0  0
  2  3  1  0  0  0  0
  2  1  1  0  0  0  0
  4  2  1  0  0  0  0
  4  5  1  0  0  0  0
  5 11  1  1  0  0  0
  5 10  1  0  0  0  0
  6  5  1  1  0  0  0
  6  7  1  0  0  0  0
  7  8  1  0  0  0  0
  7 22  1  1  0  0  0
  8 26  1  6  0  0  0
  9 10  1  0  0  0  0
  9  8  1  0  0  0  0
  9 28  1  1  0  0  0
 12 21  1  0  0  0  0
 13 12  2  0  0  0  0
 14 15  2  0  0  0  0
 14 13  1  0  0  0  0
 15 20  1  0  0  0  0
 16 17  2  0  0  0  0
 16 15  1  0  0  0  0
 17 18  1  0  0  0  0
 18 19  2  0  0  0  0
 20 19  1  0  0  0  0
 20 21  2  0  0  0  0
 22 23  1  0  0  0  0
 24  6  1  0  0  0  0
 25 24  1  0  0  0  0
 27 26  1  0  0  0  0
 29 28  1  0  0  0  0
 29 30  1  0  0  0  0
M  END
>  <minimizedAffinity>
-8.92105961

$$$$

 OpenBabel12271915513D

 30 33  0  0  1  0  0  0  0  0999 V2000
   22.2240  -13.5580   -2.0200 C   0  0  1  0  0  0  0  0  0  0  0  0
   21.7230  -14.6650   -1.1790 N   0  0  0  0  0  0  0  0  0  0  0  0
   21.3550  -15.3690   -1.7900 H   0  0  0  0  0  0  0  0  0  0  0  0
   20.3820  -14.1000   -0.6990 O   0  0  0  0  0  0  0  0  0  0  0  0
   19.8970  -13.3020   -1.7840 C   0  0  2  0  0  0  0  0  0  0  0  0
   18.6400  -12.4630   -1.3230 C   0  0  1  0  0  0  0  0  0  0  0  0
   17.4550  -12.5760   -2.3250 C   0  0  2  0  0  0  0  0  0  0  0  0
   17.2170  -14.0250   -2.8650 C   0  0  1  0  0  0  0  0  0  0  0  0
   18.4550  -14.9260   -2.6180 C   0  0  2  0  0  0  0  0  0  0  0  0
   19.6060  -14.1380   -2.9250 O   0  0  0  0  0  0  0  0  0  0  0  0
   21.0830  -12.5030   -2.1060 C   0  0  0  0  0  0  0  0  0  0  0  0
   23.5340  -13.0520   -1.4620 C   0  0  0  0  0  0  0  0  0  0  0  0
   24.3810  -13.9710   -0.8650 C   0  0  0  0  0  0  0  0  0  0  0  0
   25.5780  -13.5790   -0.2670 C   0  0  0  0  0  0  0  0  0  0  0  0
   25.9180  -12.2160   -0.3050 C   0  0  0  0  0  0  0  0  0  0  0  0
   27.1190  -11.8000    0.2760 C   0  0  0  0  0  0  0  0  0  0  0  0
   27.4790  -10.4360    0.2340 C   0  0  0  0  0  0  0  0  0  0  0  0
   26.6290   -9.5090   -0.3730 C   0  0  0  0  0  0  0  0  0  0  0  0
   25.4230   -9.9050   -0.9500 C   0  0  0  0  0  0  0  0  0  0  0  0
   25.0790  -11.2760   -0.9190 C   0  0  0  0  0  0  0  0  0  0  0  0
   23.8850  -11.6890   -1.5120 C   0  0  0  0  0  0  0  0  0  0  0  0
   17.6450  -11.6250   -3.3930 O   0  0  0  0  0  0  0  0  0  0  0  0
   17.8160  -12.1010   -4.2130 H   0  0  0  0  0  0  0  0  0  0  0  0
   18.2020  -12.9540   -0.0230 O   0  0  0  0  0  0  0  0  0  0  0  0
   17.3100  -12.6920    0.1190 H   0  0  0  0  0  0  0  0  0  0  0  0
   16.0140  -14.4950   -2.2050 O   0  0  0  0  0  0  0  0  0  0  0  0
   16.2540  -14.6900   -1.3010 H   0  0  0  0  0  0  0  0  0  0  0  0
   18.4950  -16.2010   -3.4680 C   0  0  0  0  0  0  0  0  0  0  0  0
   17.3320  -16.2880   -4.2930 O   0  0  0  0  0  0  0  0  0  0  0  0
   16.9990  -17.1800   -4.2220 H   0  0  0  0  0  0  0  0  0  0  0  0
  1 12  1  1  0  0  0
  1  2  1  0  0  0  0
  2  4  1  0  0  0  0
  3  2  1  0  0  0  0
  5 11  1  6  0  0  0
  5  4  1  0  0  0  0
  6  5  1  6  0  0  0
  6 24  1  0  0  0  0
  7 22  1  6  0  0  0
  7  6  1  0  0  0  0
  8  9  1  0  0  0  0
  8  7  1  0  0  0  0
  8 26  1  1  0  0  0
  9 28  1  6  0  0  0
 10  9  1  0  0  0  0
 10  5  1  0  0  0  0
 11  1  1  0  0  0  0
 12 13  1  0  0  0  0
 13 14  2  0  0  0  0
 15 14  1  0  0  0  0
 15 16  2  0  0  0  0
 17 16  1  0  0  0  0
 18 17  2  0  0  0  0
 19 20  2  0  0  0  0
 19 18  1  0  0  0  0
 20 15  1  0  0  0  0
 21 12  2  0  0  0  0
 21 20  1  0  0  0  0
 23 22  1  0  0  0  0
 24 25  1  0  0  0  0
 26 27  1  0  0  0  0
 29 30  1  0  0  0  0
 29 28  1  0  0  0  0
M  END
>  <minimizedAffinity>
-8.73332787

$$$$

 OpenBabel12271915513D

 30 33  0  0  1  0  0  0  0  0999 V2000
   23.8350  -12.2980   -0.7570 C   0  0  1  0  0  0  0  0  0  0  0  0
   25.0800  -12.7970   -1.3790 N   0  0  0  0  0  0  0  0  0  0  0  0
   25.8100  -12.7270   -0.6960 H   0  0  0  0  0  0  0  0  0  0  0  0
   25.4950  -11.5950   -2.2340 O   0  0  0  0  0  0  0  0  0  0  0  0
   25.0780  -10.4420   -1.4960 C   0  0  2  0  0  0  0  0  0  0  0  0
   25.2240   -9.1450   -2.3840 C   0  0  1  0  0  0  0  0  0  0  0  0
   25.9590   -7.9960   -1.6350 C   0  0  2  0  0  0  0  0  0  0  0  0
   27.2010   -8.4690   -0.8110 C   0  0  1  0  0  0  0  0  0  0  0  0
   27.1720  -10.0030   -0.5820 C   0  0  2  0  0  0  0  0  0  0  0  0
   25.8230  -10.3450   -0.2620 O   0  0  0  0  0  0  0  0  0  0  0  0
   23.6970  -10.8010   -1.1580 C   0  0  0  0  0  0  0  0  0  0  0  0
   22.6790  -13.1860   -1.1570 C   0  0  0  0  0  0  0  0  0  0  0  0
   22.9680  -14.3550   -1.8430 C   0  0  0  0  0  0  0  0  0  0  0  0
   21.9590  -15.1970   -2.3060 C   0  0  0  0  0  0  0  0  0  0  0  0
   20.6260  -14.8380   -2.0390 C   0  0  0  0  0  0  0  0  0  0  0  0
   19.5970  -15.6730   -2.4820 C   0  0  0  0  0  0  0  0  0  0  0  0
   18.2550  -15.3310   -2.2100 C   0  0  0  0  0  0  0  0  0  0  0  0
   17.9620  -14.1560   -1.5140 C   0  0  0  0  0  0  0  0  0  0  0  0
   18.9770  -13.3070   -1.0720 C   0  0  0  0  0  0  0  0  0  0  0  0
   20.3190  -13.6670   -1.3330 C   0  0  0  0  0  0  0  0  0  0  0  0
   21.3440  -12.8370   -0.8780 C   0  0  0  0  0  0  0  0  0  0  0  0
   25.0090   -7.2780   -0.8200 O   0  0  0  0  0  0  0  0  0  0  0  0
   25.2140   -7.4290    0.1090 H   0  0  0  0  0  0  0  0  0  0  0  0
   25.9820   -9.4820   -3.5830 O   0  0  0  0  0  0  0  0  0  0  0  0
   26.3340   -8.6930   -3.9550 H   0  0  0  0  0  0  0  0  0  0  0  0
   28.3600   -8.0130   -1.5540 O   0  0  0  0  0  0  0  0  0  0  0  0
   28.4390   -8.5830   -2.3180 H   0  0  0  0  0  0  0  0  0  0  0  0
   28.0820  -10.4970    0.5480 C   0  0  0  0  0  0  0  0  0  0  0  0
   28.2850  -11.9080    0.4460 O   0  0  0  0  0  0  0  0  0  0  0  0
   28.1690  -12.2750    1.3190 H   0  0  0  0  0  0  0  0  0  0  0  0
  1 12  1  6  0  0  0
  2  1  1  0  0  0  0
  2  3  1  0  0  0  0
  4  5  1  0  0  0  0
  4  2  1  0  0  0  0
  5 11  1  1  0  0  0
  5 10  1  0  0  0  0
  6  7  1  0  0  0  0
  6  5  1  1  0  0  0
  7 22  1  1  0  0  0
  7  8  1  0  0  0  0
  8 26  1  6  0  0  0
  8  9  1  0  0  0  0
  9 10  1  0  0  0  0
  9 28  1  1  0  0  0
 11  1  1  0  0  0  0
 12 21  1  0  0  0  0
 13 12  2  0  0  0  0
 14 15  2  0  0  0  0
 14 13  1  0  0  0  0
 15 20  1  0  0  0  0
 16 17  2  0  0  0  0
 16 15  1  0  0  0  0
 17 18  1  0  0  0  0
 18 19  2  0  0  0  0
 20 19  1  0  0  0  0
 20 21  2  0  0  0  0
 22 23  1  0  0  0  0
 24  6  1  0  0  0  0
 25 24  1  0  0  0  0
 27 26  1  0  0  0  0
 29 28  1  0  0  0  0
 29 30  1  0  0  0  0
M  END
>  <minimizedAffinity>
-8.41318417

$$$$

 OpenBabel12271915513D

 30 33  0  0  1  0  0  0  0  0999 V2000
   23.7530  -11.2470   -1.2100 C   0  0  1  0  0  0  0  0  0  0  0  0
   23.8850  -11.9290   -2.5140 N   0  0  0  0  0  0  0  0  0  0  0  0
   23.0900  -11.6800   -3.0700 H   0  0  0  0  0  0  0  0  0  0  0  0
   23.4390  -13.3510   -2.1600 O   0  0  0  0  0  0  0  0  0  0  0  0
   22.4340  -13.1930   -1.1530 C   0  0  2  0  0  0  0  0  0  0  0  0
   22.0680  -14.5950   -0.5240 C   0  0  1  0  0  0  0  0  0  0  0  0
   20.5310  -14.8310   -0.4610 C   0  0  2  0  0  0  0  0  0  0  0  0
   19.7660  -14.3790   -1.7480 C   0  0  1  0  0  0  0  0  0  0  0  0
   20.6340  -13.4230   -2.6090 C   0  0  2  0  0  0  0  0  0  0  0  0
   21.2770  -12.5250   -1.7050 O   0  0  0  0  0  0  0  0  0  0  0  0
   23.0920  -12.2620   -0.2330 C   0  0  0  0  0  0  0  0  0  0  0  0
   25.1020  -10.7160   -0.7790 C   0  0  0  0  0  0  0  0  0  0  0  0
   25.3520   -9.3650   -0.9550 C   0  0  0  0  0  0  0  0  0  0  0  0
   26.5910   -8.8070   -0.6460 C   0  0  0  0  0  0  0  0  0  0  0  0
   27.5840   -9.6540   -0.1230 C   0  0  0  0  0  0  0  0  0  0  0  0
   28.8310   -9.1150    0.2070 C   0  0  0  0  0  0  0  0  0  0  0  0
   29.8320   -9.9520    0.7440 C   0  0  0  0  0  0  0  0  0  0  0  0
   29.5790  -11.3130    0.9280 C   0  0  0  0  0  0  0  0  0  0  0  0
   28.3440  -11.8690    0.5960 C   0  0  0  0  0  0  0  0  0  0  0  0
   27.3410  -11.0200    0.0760 C   0  0  0  0  0  0  0  0  0  0  0  0
   26.0930  -11.5600   -0.2410 C   0  0  0  0  0  0  0  0  0  0  0  0
   20.0050  -14.2080    0.7290 O   0  0  0  0  0  0  0  0  0  0  0  0
   19.4430  -13.4690    0.4750 H   0  0  0  0  0  0  0  0  0  0  0  0
   22.6690  -15.6440   -1.3380 O   0  0  0  0  0  0  0  0  0  0  0  0
   22.2240  -16.4550   -1.1700 H   0  0  0  0  0  0  0  0  0  0  0  0
   19.3940  -15.6030   -2.4310 O   0  0  0  0  0  0  0  0  0  0  0  0
   20.1920  -15.9520   -2.8240 H   0  0  0  0  0  0  0  0  0  0  0  0
   19.8480  -12.6020   -3.6370 C   0  0  0  0  0  0  0  0  0  0  0  0
   18.7500  -13.3600   -4.1490 O   0  0  0  0  0  0  0  0  0  0  0  0
   18.7490  -13.2540   -5.0970 H   0  0  0  0  0  0  0  0  0  0  0  0
  1 12  1  1  0  0  0
  1 11  1  0  0  0  0
  2  4  1  0  0  0  0
  2  1  1  0  0  0  0
  3  2  1  0  0  0  0
  4  5  1  0  0  0  0
  5 11  1  1  0  0  0
  6  5  1  6  0  0  0
  6  7  1  0  0  0  0
  7 22  1  1  0  0  0
  8 26  1  6  0  0  0
  8  7  1  0  0  0  0
  9 28  1  6  0  0  0
  9  8  1  0  0  0  0
  9 10  1  0  0  0  0
 10  5  1  0  0  0  0
 12 21  1  0  0  0  0
 13 12  2  0  0  0  0
 13 14  1  0  0  0  0
 14 15  2  0  0  0  0
 15 20  1  0  0  0  0
 15 16  1  0  0  0  0
 16 17  2  0  0  0  0
 17 18  1  0  0  0  0
 19 18  2  0  0  0  0
 20 19  1  0  0  0  0
 21 20  2  0  0  0  0
 23 22  1  0  0  0  0
 24 25  1  0  0  0  0
 24  6  1  0  0  0  0
 27 26  1  0  0  0  0
 29 28  1  0  0  0  0
 30 29  1  0  0  0  0
M  END
>  <minimizedAffinity>
-8.41053581

$$$$

 OpenBabel12271915513D

 30 33  0  0  1  0  0  0  0  0999 V2000
   25.0680  -11.9430   -0.0890 C   0  0  1  0  0  0  0  0  0  0  0  0
   26.0290  -12.5160   -1.0550 N   0  0  0  0  0  0  0  0  0  0  0  0
   26.8090  -12.8690   -0.5350 H   0  0  0  0  0  0  0  0  0  0  0  0
   26.7080  -11.2530   -1.5950 O   0  0  0  0  0  0  0  0  0  0  0  0
   26.7430  -10.3410   -0.4920 C   0  0  2  0  0  0  0  0  0  0  0  0
   27.1950   -8.9090   -0.9820 C   0  0  1  0  0  0  0  0  0  0  0  0
   28.3200   -8.3070   -0.0920 C   0  0  2  0  0  0  0  0  0  0  0  0
   29.4300   -9.3340    0.3070 C   0  0  1  0  0  0  0  0  0  0  0  0
   28.9500  -10.7930    0.0890 C   0  0  2  0  0  0  0  0  0  0  0  0
   27.6010  -10.8550    0.5520 O   0  0  0  0  0  0  0  0  0  0  0  0
   25.3610  -10.4170   -0.0120 C   0  0  0  0  0  0  0  0  0  0  0  0
   23.6600  -12.3140   -0.4980 C   0  0  0  0  0  0  0  0  0  0  0  0
   22.6780  -11.3420   -0.3910 C   0  0  0  0  0  0  0  0  0  0  0  0
   21.3440  -11.6180   -0.6830 C   0  0  0  0  0  0  0  0  0  0  0  0
   21.0190  -12.9160   -1.1150 C   0  0  0  0  0  0  0  0  0  0  0  0
   19.6900  -13.2140   -1.4270 C   0  0  0  0  0  0  0  0  0  0  0  0
   19.3510  -14.5090   -1.8740 C   0  0  0  0  0  0  0  0  0  0  0  0
   20.3410  -15.4880   -1.9880 C   0  0  0  0  0  0  0  0  0  0  0  0
   21.6710  -15.2100   -1.6720 C   0  0  0  0  0  0  0  0  0  0  0  0
   22.0030  -13.9050   -1.2430 C   0  0  0  0  0  0  0  0  0  0  0  0
   23.3340  -13.6080   -0.9450 C   0  0  0  0  0  0  0  0  0  0  0  0
   27.7240   -7.6770    1.0610 O   0  0  0  0  0  0  0  0  0  0  0  0
   27.9640   -8.1740    1.8500 H   0  0  0  0  0  0  0  0  0  0  0  0
   27.6880   -9.0190   -2.3500 O   0  0  0  0  0  0  0  0  0  0  0  0
   28.2280   -8.2730   -2.5410 H   0  0  0  0  0  0  0  0  0  0  0  0
   30.5930   -8.9780   -0.4830 O   0  0  0  0  0  0  0  0  0  0  0  0
   30.4150   -9.2640   -1.3770 H   0  0  0  0  0  0  0  0  0  0  0  0
   29.7710  -11.8520    0.8340 C   0  0  0  0  0  0  0  0  0  0  0  0
   31.1530  -11.4890    0.8550 O   0  0  0  0  0  0  0  0  0  0  0  0
   31.6540  -12.2670    0.6220 H   0  0  0  0  0  0  0  0  0  0  0  0
  1 12  1  6  0  0  0
  1 11  1  0  0  0  0
  2  3  1  0  0  0  0
  2  1  1  0  0  0  0
  4  2  1  0  0  0  0
  4  5  1  0  0  0  0
  5 11  1  1  0  0  0
  5 10  1  0  0  0  0
  6  5  1  1  0  0  0
  6  7  1  0  0  0  0
  7  8  1  0  0  0  0
  7 22  1  1  0  0  0
  8 26  1  6  0  0  0
  9  8  1  0  0  0  0
  9 10  1  0  0  0  0
  9 28  1  1  0  0  0
 12 13  1  0  0  0  0
 14 13  2  0  0  0  0
 15 14  1  0  0  0  0
 16 15  2  0  0  0  0
 17 16  1  0  0  0  0
 18 17  2  0  0  0  0
 18 19  1  0  0  0  0
 19 20  2  0  0  0  0
 20 15  1  0  0  0  0
 20 21  1  0  0  0  0
 21 12  2  0  0  0  0
 22 23  1  0  0  0  0
 24  6  1  0  0  0  0
 25 24  1  0  0  0  0
 27 26  1  0  0  0  0
 28 29  1  0  0  0  0
 30 29  1  0  0  0  0
M  END
>  <minimizedAffinity>
-8.12780762

$$$$

 OpenBabel12271915513D

 30 33  0  0  1  0  0  0  0  0999 V2000
   17.6390  -11.2280   -1.5040 C   0  0  1  0  0  0  0  0  0  0  0  0
   17.3470  -10.4400   -0.2880 N   0  0  0  0  0  0  0  0  0  0  0  0
   16.3870  -10.5980   -0.0460 H   0  0  0  0  0  0  0  0  0  0  0  0
   17.1740   -9.0340   -0.8700 O   0  0  0  0  0  0  0  0  0  0  0  0
   16.5900   -9.2280   -2.1620 C   0  0  2  0  0  0  0  0  0  0  0  0
   16.5890   -7.8700   -2.9700 C   0  0  1  0  0  0  0  0  0  0  0  0
   15.2020   -7.5620   -3.6050 C   0  0  2  0  0  0  0  0  0  0  0  0
   13.9920   -7.8580   -2.6600 C   0  0  1  0  0  0  0  0  0  0  0  0
   14.4110   -8.7770   -1.4830 C   0  0  2  0  0  0  0  0  0  0  0  0
   15.2630   -9.7840   -2.0300 O   0  0  0  0  0  0  0  0  0  0  0  0
   17.4580  -10.2700   -2.7170 C   0  0  0  0  0  0  0  0  0  0  0  0
   19.0050  -11.8630   -1.3770 C   0  0  0  0  0  0  0  0  0  0  0  0
   20.0840  -11.0330   -1.1190 C   0  0  0  0  0  0  0  0  0  0  0  0
   21.3850  -11.5280   -1.0530 C   0  0  0  0  0  0  0  0  0  0  0  0
   21.5750  -12.9090   -1.2350 C   0  0  0  0  0  0  0  0  0  0  0  0
   22.8700  -13.4310   -1.1600 C   0  0  0  0  0  0  0  0  0  0  0  0
   23.0730  -14.8170   -1.3290 C   0  0  0  0  0  0  0  0  0  0  0  0
   21.9860  -15.6560   -1.5830 C   0  0  0  0  0  0  0  0  0  0  0  0
   20.6890  -15.1510   -1.6690 C   0  0  0  0  0  0  0  0  0  0  0  0
   20.4920  -13.7640   -1.4810 C   0  0  0  0  0  0  0  0  0  0  0  0
   19.1970  -13.2480   -1.5440 C   0  0  0  0  0  0  0  0  0  0  0  0
   15.0920   -8.2600   -4.8630 O   0  0  0  0  0  0  0  0  0  0  0  0
   14.4190   -8.9440   -4.7850 H   0  0  0  0  0  0  0  0  0  0  0  0
   16.9390   -6.7860   -2.0610 O   0  0  0  0  0  0  0  0  0  0  0  0
   16.6510   -5.9710   -2.4310 H   0  0  0  0  0  0  0  0  0  0  0  0
   13.4980   -6.5610   -2.2400 O   0  0  0  0  0  0  0  0  0  0  0  0
   14.1260   -6.2200   -1.6060 H   0  0  0  0  0  0  0  0  0  0  0  0
   13.2440   -9.4630   -0.7630 C   0  0  0  0  0  0  0  0  0  0  0  0
   13.3690   -9.3070    0.6520 O   0  0  0  0  0  0  0  0  0  0  0  0
   13.2040  -10.1590    1.0470 H   0  0  0  0  0  0  0  0  0  0  0  0
  1 12  1  1  0  0  0
  1  2  1  0  0  0  0
  2  3  1  0  0  0  0
  4  2  1  0  0  0  0
  5 11  1  6  0  0  0
  5 10  1  0  0  0  0
  5  4  1  0  0  0  0
  6  5  1  1  0  0  0
  6 24  1  0  0  0  0
  7 22  1  6  0  0  0
  7  6  1  0  0  0  0
  7  8  1  0  0  0  0
  8 26  1  1  0  0  0
  8  9  1  0  0  0  0
  9 28  1  6  0  0  0
 10  9  1  0  0  0  0
 11  1  1  0  0  0  0
 12 13  2  0  0  0  0
 13 14  1  0  0  0  0
 15 16  1  0  0  0  0
 15 14  2  0  0  0  0
 17 16  2  0  0  0  0
 18 17  1  0  0  0  0
 19 18  2  0  0  0  0
 19 20  1  0  0  0  0
 20 15  1  0  0  0  0
 21 20  2  0  0  0  0
 21 12  1  0  0  0  0
 22 23  1  0  0  0  0
 25 24  1  0  0  0  0
 26 27  1  0  0  0  0
 28 29  1  0  0  0  0
 29 30  1  0  0  0  0
M  END
>  <minimizedAffinity>
-8.07319832

$$$$

 OpenBabel12271915513D

 30 33  0  0  1  0  0  0  0  0999 V2000
   22.5650  -11.2230   -1.0460 C   0  0  1  0  0  0  0  0  0  0  0  0
   22.4050  -11.0460   -2.5050 N   0  0  0  0  0  0  0  0  0  0  0  0
   21.6590  -10.3920   -2.6520 H   0  0  0  0  0  0  0  0  0  0  0  0
   21.6320  -12.3140   -2.8820 O   0  0  0  0  0  0  0  0  0  0  0  0
   20.7900  -12.5930   -1.7590 C   0  0  2  0  0  0  0  0  0  0  0  0
   20.1230  -14.0160   -1.9190 C   0  0  1  0  0  0  0  0  0  0  0  0
   18.5890  -13.9810   -1.6600 C   0  0  2  0  0  0  0  0  0  0  0  0
   17.8660  -12.7520   -2.3010 C   0  0  1  0  0  0  0  0  0  0  0  0
   18.8780  -11.6390   -2.6790 C   0  0  2  0  0  0  0  0  0  0  0  0
   19.8080  -11.5450   -1.5990 O   0  0  0  0  0  0  0  0  0  0  0  0
   21.7440  -12.4850   -0.6510 C   0  0  0  0  0  0  0  0  0  0  0  0
   24.0370  -11.2730   -0.7030 C   0  0  0  0  0  0  0  0  0  0  0  0
   24.5910  -12.5080   -0.4110 C   0  0  0  0  0  0  0  0  0  0  0  0
   25.9230  -12.6350   -0.0200 C   0  0  0  0  0  0  0  0  0  0  0  0
   26.7040  -11.4690    0.0490 C   0  0  0  0  0  0  0  0  0  0  0  0
   28.0460  -11.5720    0.4250 C   0  0  0  0  0  0  0  0  0  0  0  0
   28.8450  -10.4110    0.4870 C   0  0  0  0  0  0  0  0  0  0  0  0
   28.2890   -9.1650    0.1860 C   0  0  0  0  0  0  0  0  0  0  0  0
   26.9490   -9.0430   -0.1830 C   0  0  0  0  0  0  0  0  0  0  0  0
   26.1620  -10.2140   -0.2590 C   0  0  0  0  0  0  0  0  0  0  0  0
   24.8250  -10.1080   -0.6470 C   0  0  0  0  0  0  0  0  0  0  0  0
   18.3460  -14.0750   -0.2410 O   0  0  0  0  0  0  0  0  0  0  0  0
   17.9780  -13.2410    0.0700 H   0  0  0  0  0  0  0  0  0  0  0  0
   20.3580  -14.4920   -3.2760 O   0  0  0  0  0  0  0  0  0  0  0  0
   19.7320  -15.1640   -3.4780 H   0  0  0  0  0  0  0  0  0  0  0  0
   17.1290  -13.2780   -3.4340 O   0  0  0  0  0  0  0  0  0  0  0  0
   17.7720  -13.4680   -4.1160 H   0  0  0  0  0  0  0  0  0  0  0  0
   18.2530  -10.2580   -2.9050 C   0  0  0  0  0  0  0  0  0  0  0  0
   16.8300  -10.3610   -2.9860 O   0  0  0  0  0  0  0  0  0  0  0  0
   16.5500   -9.8420   -3.7350 H   0  0  0  0  0  0  0  0  0  0  0  0
  1 12  1  6  0  0  0
  1 11  1  0  0  0  0
  2  1  1  0  0  0  0
  3  2  1  0  0  0  0
  4  2  1  0  0  0  0
  4  5  1  0  0  0  0
  5 10  1  0  0  0  0
  5 11  1  1  0  0  0
  6  5  1  6  0  0  0
  6  7  1  0  0  0  0
  7 22  1  1  0  0  0
  8 26  1  6  0  0  0
  8  7  1  0  0  0  0
  9 28  1  1  0  0  0
  9  8  1  0  0  0  0
  9 10  1  0  0  0  0
 12 21  2  0  0  0  0
 12 13  1  0  0  0  0
 13 14  2  0  0  0  0
 14 15  1  0  0  0  0
 15 16  2  0  0  0  0
 16 17  1  0  0  0  0
 18 17  2  0  0  0  0
 19 18  1  0  0  0  0
 20 19  2  0  0  0  0
 20 15  1  0  0  0  0
 21 20  1  0  0  0  0
 22 23  1  0  0  0  0
 24  6  1  0  0  0  0
 25 24  1  0  0  0  0
 27 26  1  0  0  0  0
 29 28  1  0  0  0  0
 30 29  1  0  0  0  0
M  END
>  <minimizedAffinity>
-8.02343559

$$$$
