
 OpenBabel12271915443D

 30 33  0  0  1  0  0  0  0  0999 V2000
   19.8510  -13.2600   -1.0810 C   0  0  1  0  0  0  0  0  0  0  0  0
   20.4710  -13.8970    0.0690 N   0  0  0  0  0  0  0  0  0  0  0  0
   20.3400  -14.9090    0.0280 H   0  0  0  0  0  0  0  0  0  0  0  0
   21.8850  -13.7570   -0.0040 O   0  0  0  0  0  0  0  0  0  0  0  0
   22.2170  -12.8960   -1.0620 C   0  0  2  0  0  0  0  0  0  0  0  0
   23.4220  -13.4140   -1.8390 C   0  0  1  0  0  0  0  0  0  0  0  0
   24.5530  -12.3870   -1.7750 C   0  0  2  0  0  0  0  0  0  0  0  0
   24.7290  -11.9420   -0.3240 C   0  0  1  0  0  0  0  0  0  0  0  0
   23.4410  -11.2820    0.1850 C   0  0  2  0  0  0  0  0  0  0  0  0
   22.3270  -11.5430   -0.6500 O   0  0  0  0  0  0  0  0  0  0  0  0
   21.0160  -12.9070   -1.9710 C   0  0  0  0  0  0  0  0  0  0  0  0
   18.8240  -14.1470   -1.7530 C   0  0  0  0  0  0  0  0  0  0  0  0
   17.4670  -13.8770   -1.5700 C   0  0  0  0  0  0  0  0  0  0  0  0
   16.5120  -14.6460   -2.2110 C   0  0  0  0  0  0  0  0  0  0  0  0
   16.8710  -15.6970   -3.0500 C   0  0  0  0  0  0  0  0  0  0  0  0
   15.9190  -16.4710   -3.7080 C   0  0  0  0  0  0  0  0  0  0  0  0
   16.3090  -17.5120   -4.5430 C   0  0  0  0  0  0  0  0  0  0  0  0
   17.6500  -17.8020   -4.7340 C   0  0  0  0  0  0  0  0  0  0  0  0
   18.6010  -17.0330   -4.0820 C   0  0  0  0  0  0  0  0  0  0  0  0
   18.2260  -15.9810   -3.2410 C   0  0  0  0  0  0  0  0  0  0  0  0
   19.1690  -15.1960   -2.5970 C   0  0  0  0  0  0  0  0  0  0  0  0
   24.2750  -11.2680   -2.6280 O   0  0  0  0  0  0  0  0  0  0  0  0
   23.3380  -11.2900   -2.9150 H   0  0  0  0  0  0  0  0  0  0  0  0
   23.8900  -14.6970   -1.3380 O   0  0  0  0  0  0  0  0  0  0  0  0
   24.3860  -15.1260   -2.0520 H   0  0  0  0  0  0  0  0  0  0  0  0
   24.9840  -13.0920    0.4900 O   0  0  0  0  0  0  0  0  0  0  0  0
   25.6440  -13.6670    0.0660 H   0  0  0  0  0  0  0  0  0  0  0  0
   23.5910   -9.7570    0.2200 C   0  0  0  0  0  0  0  0  0  0  0  0
   24.8950   -9.3300   -0.1940 O   0  0  0  0  0  0  0  0  0  0  0  0
   24.8830   -9.1730   -1.1610 H   0  0  0  0  0  0  0  0  0  0  0  0
  1 12  1  6  0  0  0
  1  2  1  0  0  0  0
  3  2  1  0  0  0  0
  4  2  1  0  0  0  0
  5 11  1  6  0  0  0
  5 10  1  0  0  0  0
  5  4  1  0  0  0  0
  6  7  1  0  0  0  0
  6 24  1  0  0  0  0
  6  5  1  1  0  0  0
  7 22  1  6  0  0  0
  7  8  1  0  0  0  0
  8  9  1  0  0  0  0
  8 26  1  1  0  0  0
  9 28  1  6  0  0  0
 10  9  1  0  0  0  0
 11  1  1  0  0  0  0
 12 13  1  0  0  0  0
 14 13  2  0  0  0  0
 15 14  1  0  0  0  0
 16 15  2  0  0  0  0
 17 16  1  0  0  0  0
 18 17  2  0  0  0  0
 18 19  1  0  0  0  0
 19 20  2  0  0  0  0
 20 15  1  0  0  0  0
 20 21  1  0  0  0  0
 21 12  2  0  0  0  0
 23 22  1  0  0  0  0
 25 24  1  0  0  0  0
 27 26  1  0  0  0  0
 29 28  1  0  0  0  0
 30 29  1  0  0  0  0
M  END
>  <minimizedAffinity>
-9.79878044

$$$$

 OpenBabel12271915443D

 30 33  0  0  1  0  0  0  0  0999 V2000
   21.7400  -14.2540   -1.3920 C   0  0  1  0  0  0  0  0  0  0  0  0
   22.6370  -14.4500   -2.5180 N   0  0  0  0  0  0  0  0  0  0  0  0
   22.1090  -14.4850   -3.3910 H   0  0  0  0  0  0  0  0  0  0  0  0
   23.4590  -13.3010   -2.6890 O   0  0  0  0  0  0  0  0  0  0  0  0
   23.2680  -12.4240   -1.6090 C   0  0  2  0  0  0  0  0  0  0  0  0
   23.1990  -10.9750   -2.0810 C   0  0  1  0  0  0  0  0  0  0  0  0
   24.3250  -10.1720   -1.4300 C   0  0  2  0  0  0  0  0  0  0  0  0
   25.6310  -10.9490   -1.5800 C   0  0  1  0  0  0  0  0  0  0  0  0
   25.5240  -12.3030   -0.8660 C   0  0  2  0  0  0  0  0  0  0  0  0
   24.1870  -12.6500   -0.5530 O   0  0  0  0  0  0  0  0  0  0  0  0
   21.9330  -12.8040   -1.0240 C   0  0  0  0  0  0  0  0  0  0  0  0
   20.3050  -14.6060   -1.7240 C   0  0  0  0  0  0  0  0  0  0  0  0
   19.2710  -13.9170   -1.0890 C   0  0  0  0  0  0  0  0  0  0  0  0
   17.9520  -14.1900   -1.4110 C   0  0  0  0  0  0  0  0  0  0  0  0
   17.6230  -15.1460   -2.3670 C   0  0  0  0  0  0  0  0  0  0  0  0
   16.3010  -15.4220   -2.7060 C   0  0  0  0  0  0  0  0  0  0  0  0
   16.0030  -16.3800   -3.6680 C   0  0  0  0  0  0  0  0  0  0  0  0
   17.0140  -17.0810   -4.3060 C   0  0  0  0  0  0  0  0  0  0  0  0
   18.3310  -16.8080   -3.9730 C   0  0  0  0  0  0  0  0  0  0  0  0
   18.6480  -15.8460   -3.0090 C   0  0  0  0  0  0  0  0  0  0  0  0
   19.9620  -15.5550   -2.6800 C   0  0  0  0  0  0  0  0  0  0  0  0
   24.0350   -9.9100   -0.0500 O   0  0  0  0  0  0  0  0  0  0  0  0
   23.2840  -10.4670    0.2450 H   0  0  0  0  0  0  0  0  0  0  0  0
   23.2820  -10.8630   -3.5280 O   0  0  0  0  0  0  0  0  0  0  0  0
   22.8880  -10.0140   -3.7780 H   0  0  0  0  0  0  0  0  0  0  0  0
   25.8690  -11.2020   -2.9680 O   0  0  0  0  0  0  0  0  0  0  0  0
   25.7100  -10.3980   -3.4910 H   0  0  0  0  0  0  0  0  0  0  0  0
   26.2730  -12.2730    0.4710 C   0  0  0  0  0  0  0  0  0  0  0  0
   27.6560  -11.9290    0.3090 O   0  0  0  0  0  0  0  0  0  0  0  0
   27.7500  -10.9570    0.3870 H   0  0  0  0  0  0  0  0  0  0  0  0
  1 12  1  6  0  0  0
  1 11  1  0  0  0  0
  2  1  1  0  0  0  0
  3  2  1  0  0  0  0
  4  2  1  0  0  0  0
  4  5  1  0  0  0  0
  5 11  1  1  0  0  0
  5 10  1  0  0  0  0
  6  5  1  6  0  0  0
  6  7  1  0  0  0  0
  7 22  1  1  0  0  0
  8 26  1  6  0  0  0
  8  7  1  0  0  0  0
  8  9  1  0  0  0  0
  9 10  1  0  0  0  0
  9 28  1  1  0  0  0
 12 13  2  0  0  0  0
 14 13  1  0  0  0  0
 15 14  2  0  0  0  0
 16 15  1  0  0  0  0
 17 16  2  0  0  0  0
 18 19  2  0  0  0  0
 18 17  1  0  0  0  0
 19 20  1  0  0  0  0
 20 21  2  0  0  0  0
 20 15  1  0  0  0  0
 21 12  1  0  0  0  0
 22 23  1  0  0  0  0
 24  6  1  0  0  0  0
 25 24  1  0  0  0  0
 27 26  1  0  0  0  0
 29 30  1  0  0  0  0
 29 28  1  0  0  0  0
M  END
>  <minimizedAffinity>
-9.08722019

$$$$

 OpenBabel12271915443D

 30 33  0  0  1  0  0  0  0  0999 V2000
   22.2540  -14.3960   -1.4310 C   0  0  1  0  0  0  0  0  0  0  0  0
   21.4040  -14.7500   -0.3060 N   0  0  0  0  0  0  0  0  0  0  0  0
   21.5960  -14.1400    0.4900 H   0  0  0  0  0  0  0  0  0  0  0  0
   20.0460  -14.4570   -0.6120 O   0  0  0  0  0  0  0  0  0  0  0  0
   19.9390  -14.0900   -1.9640 C   0  0  2  0  0  0  0  0  0  0  0  0
   18.9930  -12.9080   -2.1420 C   0  0  1  0  0  0  0  0  0  0  0  0
   17.8280  -13.3180   -3.0430 C   0  0  2  0  0  0  0  0  0  0  0  0
   17.2760  -14.6560   -2.5540 C   0  0  1  0  0  0  0  0  0  0  0  0
   18.3610  -15.7360   -2.6390 C   0  0  2  0  0  0  0  0  0  0  0  0
   19.6590  -15.1950   -2.8080 O   0  0  0  0  0  0  0  0  0  0  0  0
   21.3270  -13.6610   -2.3670 C   0  0  0  0  0  0  0  0  0  0  0  0
   23.4600  -13.5820   -1.0140 C   0  0  0  0  0  0  0  0  0  0  0  0
   24.6120  -14.2430   -0.5850 C   0  0  0  0  0  0  0  0  0  0  0  0
   25.7420  -13.5210   -0.2430 C   0  0  0  0  0  0  0  0  0  0  0  0
   25.7650  -12.1320   -0.3180 C   0  0  0  0  0  0  0  0  0  0  0  0
   26.8990  -11.3950    0.0130 C   0  0  0  0  0  0  0  0  0  0  0  0
   26.8930  -10.0080   -0.0750 C   0  0  0  0  0  0  0  0  0  0  0  0
   25.7580   -9.3310   -0.4930 C   0  0  0  0  0  0  0  0  0  0  0  0
   24.6280  -10.0600   -0.8260 C   0  0  0  0  0  0  0  0  0  0  0  0
   24.6180  -11.4550   -0.7440 C   0  0  0  0  0  0  0  0  0  0  0  0
   23.4980  -12.1950   -1.0890 C   0  0  0  0  0  0  0  0  0  0  0  0
   18.2470  -13.4020   -4.4120 O   0  0  0  0  0  0  0  0  0  0  0  0
   19.2250  -13.3830   -4.4650 H   0  0  0  0  0  0  0  0  0  0  0  0
   18.4860  -12.4120   -0.8730 O   0  0  0  0  0  0  0  0  0  0  0  0
   18.2040  -11.4950   -1.0090 H   0  0  0  0  0  0  0  0  0  0  0  0
   16.8900  -14.5280   -1.1810 O   0  0  0  0  0  0  0  0  0  0  0  0
   16.3870  -13.7070   -1.0460 H   0  0  0  0  0  0  0  0  0  0  0  0
   18.1260  -16.6480   -3.8480 C   0  0  0  0  0  0  0  0  0  0  0  0
   16.9300  -16.3060   -4.5600 O   0  0  0  0  0  0  0  0  0  0  0  0
   17.1540  -15.6580   -5.2600 H   0  0  0  0  0  0  0  0  0  0  0  0
  1 12  1  1  0  0  0
  1  2  1  0  0  0  0
  2  3  1  0  0  0  0
  4  2  1  0  0  0  0
  5 11  1  6  0  0  0
  5  4  1  0  0  0  0
  6  5  1  1  0  0  0
  6 24  1  0  0  0  0
  7 22  1  6  0  0  0
  7  8  1  0  0  0  0
  7  6  1  0  0  0  0
  8 26  1  1  0  0  0
  9 28  1  6  0  0  0
  9  8  1  0  0  0  0
 10  9  1  0  0  0  0
 10  5  1  0  0  0  0
 11  1  1  0  0  0  0
 12 13  1  0  0  0  0
 13 14  2  0  0  0  0
 15 14  1  0  0  0  0
 15 16  2  0  0  0  0
 17 16  1  0  0  0  0
 18 17  2  0  0  0  0
 19 20  2  0  0  0  0
 19 18  1  0  0  0  0
 20 15  1  0  0  0  0
 21 12  2  0  0  0  0
 21 20  1  0  0  0  0
 23 22  1  0  0  0  0
 25 24  1  0  0  0  0
 26 27  1  0  0  0  0
 29 28  1  0  0  0  0
 30 29  1  0  0  0  0
M  END
>  <minimizedAffinity>
-8.92471123

$$$$

 OpenBabel12271915443D

 30 33  0  0  1  0  0  0  0  0999 V2000
   23.6190  -12.2200   -0.7630 C   0  0  1  0  0  0  0  0  0  0  0  0
   24.6220  -13.1090   -1.3280 N   0  0  0  0  0  0  0  0  0  0  0  0
   24.2030  -13.7090   -2.0410 H   0  0  0  0  0  0  0  0  0  0  0  0
   25.5770  -12.3560   -2.0660 O   0  0  0  0  0  0  0  0  0  0  0  0
   25.3500  -10.9850   -1.8630 C   0  0  2  0  0  0  0  0  0  0  0  0
   25.4940  -10.2030   -3.1640 C   0  0  1  0  0  0  0  0  0  0  0  0
   26.6120   -9.1700   -3.0180 C   0  0  2  0  0  0  0  0  0  0  0  0
   27.8360   -9.8550   -2.4130 C   0  0  1  0  0  0  0  0  0  0  0  0
   27.4980  -10.4060   -1.0230 C   0  0  2  0  0  0  0  0  0  0  0  0
   26.1040  -10.4620   -0.7820 O   0  0  0  0  0  0  0  0  0  0  0  0
   23.9210  -10.8860   -1.3970 C   0  0  0  0  0  0  0  0  0  0  0  0
   22.2070  -12.7040   -1.0140 C   0  0  0  0  0  0  0  0  0  0  0  0
   21.1350  -11.8760   -0.6770 C   0  0  0  0  0  0  0  0  0  0  0  0
   19.8360  -12.2780   -0.9410 C   0  0  0  0  0  0  0  0  0  0  0  0
   19.5650  -13.5020   -1.5440 C   0  0  0  0  0  0  0  0  0  0  0  0
   18.2640  -13.9120   -1.8230 C   0  0  0  0  0  0  0  0  0  0  0  0
   18.0230  -15.1390   -2.4300 C   0  0  0  0  0  0  0  0  0  0  0  0
   19.0730  -15.9790   -2.7680 C   0  0  0  0  0  0  0  0  0  0  0  0
   20.3690  -15.5740   -2.4940 C   0  0  0  0  0  0  0  0  0  0  0  0
   20.6280  -14.3420   -1.8850 C   0  0  0  0  0  0  0  0  0  0  0  0
   21.9220  -13.9210   -1.6210 C   0  0  0  0  0  0  0  0  0  0  0  0
   26.1850   -8.0660   -2.2090 O   0  0  0  0  0  0  0  0  0  0  0  0
   25.3490   -8.2910   -1.7490 H   0  0  0  0  0  0  0  0  0  0  0  0
   25.7660  -11.0690   -4.3000 O   0  0  0  0  0  0  0  0  0  0  0  0
   25.4980  -10.5930   -5.1010 H   0  0  0  0  0  0  0  0  0  0  0  0
   28.2130  -10.9580   -3.2440 O   0  0  0  0  0  0  0  0  0  0  0  0
   28.2060  -10.6950   -4.1790 H   0  0  0  0  0  0  0  0  0  0  0  0
   28.0780   -9.5060    0.0740 C   0  0  0  0  0  0  0  0  0  0  0  0
   27.2010   -8.4210    0.4040 O   0  0  0  0  0  0  0  0  0  0  0  0
   26.6110   -8.7030    1.1340 H   0  0  0  0  0  0  0  0  0  0  0  0
  1 12  1  6  0  0  0
  2  1  1  0  0  0  0
  3  2  1  0  0  0  0
  4  5  1  0  0  0  0
  4  2  1  0  0  0  0
  5 11  1  1  0  0  0
  5 10  1  0  0  0  0
  6  7  1  0  0  0  0
  6  5  1  1  0  0  0
  7  8  1  0  0  0  0
  7 22  1  1  0  0  0
  8 26  1  6  0  0  0
  8  9  1  0  0  0  0
  9 10  1  0  0  0  0
  9 28  1  1  0  0  0
 11  1  1  0  0  0  0
 12 13  2  0  0  0  0
 14 13  1  0  0  0  0
 15 14  2  0  0  0  0
 16 15  1  0  0  0  0
 17 16  2  0  0  0  0
 18 19  2  0  0  0  0
 18 17  1  0  0  0  0
 19 20  1  0  0  0  0
 20 21  2  0  0  0  0
 20 15  1  0  0  0  0
 21 12  1  0  0  0  0
 22 23  1  0  0  0  0
 24  6  1  0  0  0  0
 25 24  1  0  0  0  0
 27 26  1  0  0  0  0
 28 29  1  0  0  0  0
 29 30  1  0  0  0  0
M  END
>  <minimizedAffinity>
-8.28133011

$$$$

 OpenBabel12271915443D

 30 33  0  0  1  0  0  0  0  0999 V2000
   24.4150  -12.3470   -0.4240 C   0  0  1  0  0  0  0  0  0  0  0  0
   25.6580  -13.0960   -0.5160 N   0  0  0  0  0  0  0  0  0  0  0  0
   25.5550  -13.8760   -1.1670 H   0  0  0  0  0  0  0  0  0  0  0  0
   26.6610  -12.2970   -1.1330 O   0  0  0  0  0  0  0  0  0  0  0  0
   26.1840  -10.9860   -1.2910 C   0  0  2  0  0  0  0  0  0  0  0  0
   26.5760  -10.4150   -2.6490 C   0  0  1  0  0  0  0  0  0  0  0  0
   27.4390   -9.1690   -2.4500 C   0  0  2  0  0  0  0  0  0  0  0  0
   28.5270   -9.4840   -1.4250 C   0  0  1  0  0  0  0  0  0  0  0  0
   27.8920   -9.8560   -0.0800 C   0  0  2  0  0  0  0  0  0  0  0  0
   26.5110  -10.1510   -0.1910 O   0  0  0  0  0  0  0  0  0  0  0  0
   24.6830  -11.1020   -1.2320 C   0  0  0  0  0  0  0  0  0  0  0  0
   23.2220  -13.1390   -0.9140 C   0  0  0  0  0  0  0  0  0  0  0  0
   23.4340  -14.2710   -1.7030 C   0  0  0  0  0  0  0  0  0  0  0  0
   22.3610  -15.0370   -2.1240 C   0  0  0  0  0  0  0  0  0  0  0  0
   21.0550  -14.7070   -1.7760 C   0  0  0  0  0  0  0  0  0  0  0  0
   19.9680  -15.4760   -2.1850 C   0  0  0  0  0  0  0  0  0  0  0  0
   18.6740  -15.1230   -1.8180 C   0  0  0  0  0  0  0  0  0  0  0  0
   18.4400  -14.0000   -1.0410 C   0  0  0  0  0  0  0  0  0  0  0  0
   19.5190  -13.2340   -0.6300 C   0  0  0  0  0  0  0  0  0  0  0  0
   20.8260  -13.5750   -0.9890 C   0  0  0  0  0  0  0  0  0  0  0  0
   21.9130  -12.8240   -0.5700 C   0  0  0  0  0  0  0  0  0  0  0  0
   26.6390   -8.0560   -2.0280 O   0  0  0  0  0  0  0  0  0  0  0  0
   25.7500   -8.3660   -1.7570 H   0  0  0  0  0  0  0  0  0  0  0  0
   27.2870  -11.3830   -3.4690 O   0  0  0  0  0  0  0  0  0  0  0  0
   27.1910  -11.1090   -4.3930 H   0  0  0  0  0  0  0  0  0  0  0  0
   29.2850  -10.6100   -1.8790 O   0  0  0  0  0  0  0  0  0  0  0  0
   29.5070  -10.5110   -2.8210 H   0  0  0  0  0  0  0  0  0  0  0  0
   27.9930   -8.6900    0.9100 C   0  0  0  0  0  0  0  0  0  0  0  0
   28.5350   -7.5100    0.3020 O   0  0  0  0  0  0  0  0  0  0  0  0
   27.7970   -6.9710   -0.0520 H   0  0  0  0  0  0  0  0  0  0  0  0
  1 12  1  6  0  0  0
  2  1  1  0  0  0  0
  3  2  1  0  0  0  0
  4  2  1  0  0  0  0
  5 11  1  6  0  0  0
  5  4  1  0  0  0  0
  5 10  1  0  0  0  0
  6  7  1  0  0  0  0
  6  5  1  1  0  0  0
  7 22  1  1  0  0  0
  7  8  1  0  0  0  0
  8 26  1  6  0  0  0
  8  9  1  0  0  0  0
  9 28  1  1  0  0  0
 10  9  1  0  0  0  0
 11  1  1  0  0  0  0
 12 21  1  0  0  0  0
 13 12  2  0  0  0  0
 14 15  2  0  0  0  0
 14 13  1  0  0  0  0
 15 20  1  0  0  0  0
 16 17  2  0  0  0  0
 16 15  1  0  0  0  0
 17 18  1  0  0  0  0
 18 19  2  0  0  0  0
 20 19  1  0  0  0  0
 20 21  2  0  0  0  0
 22 23  1  0  0  0  0
 24  6  1  0  0  0  0
 25 24  1  0  0  0  0
 27 26  1  0  0  0  0
 29 28  1  0  0  0  0
 30 29  1  0  0  0  0
M  END
>  <minimizedAffinity>
-8.25799179

$$$$

 OpenBabel12271915443D

 30 33  0  0  1  0  0  0  0  0999 V2000
   23.9980  -11.0220   -1.0240 C   0  0  1  0  0  0  0  0  0  0  0  0
   23.9000  -11.5090   -2.3910 N   0  0  0  0  0  0  0  0  0  0  0  0
   24.8240  -11.7570   -2.7460 H   0  0  0  0  0  0  0  0  0  0  0  0
   23.2060  -12.7500   -2.4140 O   0  0  0  0  0  0  0  0  0  0  0  0
   22.6810  -13.0180   -1.1390 C   0  0  2  0  0  0  0  0  0  0  0  0
   22.8620  -14.4850   -0.7640 C   0  0  1  0  0  0  0  0  0  0  0  0
   21.4940  -15.1240   -0.5260 C   0  0  2  0  0  0  0  0  0  0  0  0
   20.5710  -14.7530   -1.6850 C   0  0  1  0  0  0  0  0  0  0  0  0
   20.3930  -13.2310   -1.7500 C   0  0  2  0  0  0  0  0  0  0  0  0
   21.3580  -12.5350   -0.9810 O   0  0  0  0  0  0  0  0  0  0  0  0
   23.4960  -12.1750   -0.1920 C   0  0  0  0  0  0  0  0  0  0  0  0
   25.4020  -10.5830   -0.6640 C   0  0  0  0  0  0  0  0  0  0  0  0
   25.7440   -9.2350   -0.7790 C   0  0  0  0  0  0  0  0  0  0  0  0
   27.0070   -8.8040   -0.4120 C   0  0  0  0  0  0  0  0  0  0  0  0
   27.9610   -9.6900    0.0800 C   0  0  0  0  0  0  0  0  0  0  0  0
   29.2300   -9.2670    0.4630 C   0  0  0  0  0  0  0  0  0  0  0  0
   30.1610  -10.1750    0.9540 C   0  0  0  0  0  0  0  0  0  0  0  0
   29.8450  -11.5190    1.0710 C   0  0  0  0  0  0  0  0  0  0  0  0
   28.5810  -11.9440    0.6930 C   0  0  0  0  0  0  0  0  0  0  0  0
   27.6330  -11.0440    0.1990 C   0  0  0  0  0  0  0  0  0  0  0  0
   26.3620  -11.4560   -0.1670 C   0  0  0  0  0  0  0  0  0  0  0  0
   20.9440  -14.7000    0.7290 O   0  0  0  0  0  0  0  0  0  0  0  0
   21.4530  -13.9380    1.0770 H   0  0  0  0  0  0  0  0  0  0  0  0
   23.5850  -15.2290   -1.7830 O   0  0  0  0  0  0  0  0  0  0  0  0
   23.9690  -16.0090   -1.3570 H   0  0  0  0  0  0  0  0  0  0  0  0
   21.1690  -15.1780   -2.9140 O   0  0  0  0  0  0  0  0  0  0  0  0
   21.5140  -16.0830   -2.8270 H   0  0  0  0  0  0  0  0  0  0  0  0
   19.0290  -12.8190   -1.1850 C   0  0  0  0  0  0  0  0  0  0  0  0
   18.3110  -13.9320   -0.6360 O   0  0  0  0  0  0  0  0  0  0  0  0
   18.5320  -14.0110    0.3150 H   0  0  0  0  0  0  0  0  0  0  0  0
  1 12  1  1  0  0  0
  1 11  1  0  0  0  0
  2  1  1  0  0  0  0
  3  2  1  0  0  0  0
  4  2  1  0  0  0  0
  4  5  1  0  0  0  0
  5 10  1  0  0  0  0
  5 11  1  1  0  0  0
  6  5  1  6  0  0  0
  6  7  1  0  0  0  0
  7 22  1  1  0  0  0
  8 26  1  6  0  0  0
  8  7  1  0  0  0  0
  9  8  1  0  0  0  0
  9 28  1  1  0  0  0
  9 10  1  0  0  0  0
 12 21  1  0  0  0  0
 13 12  2  0  0  0  0
 13 14  1  0  0  0  0
 14 15  2  0  0  0  0
 15 20  1  0  0  0  0
 15 16  1  0  0  0  0
 16 17  2  0  0  0  0
 17 18  1  0  0  0  0
 19 18  2  0  0  0  0
 20 19  1  0  0  0  0
 21 20  2  0  0  0  0
 22 23  1  0  0  0  0
 24 25  1  0  0  0  0
 24  6  1  0  0  0  0
 26 27  1  0  0  0  0
 28 29  1  0  0  0  0
 29 30  1  0  0  0  0
M  END
>  <minimizedAffinity>
-8.19999409

$$$$

 OpenBabel12271915443D

 30 33  0  0  1  0  0  0  0  0999 V2000
   22.9820  -11.2160   -1.1780 C   0  0  1  0  0  0  0  0  0  0  0  0
   22.8650  -11.5510   -2.5880 N   0  0  0  0  0  0  0  0  0  0  0  0
   23.6980  -12.0500   -2.9040 H   0  0  0  0  0  0  0  0  0  0  0  0
   21.8300  -12.5090   -2.7750 O   0  0  0  0  0  0  0  0  0  0  0  0
   21.1340  -12.6880   -1.5680 C   0  0  2  0  0  0  0  0  0  0  0  0
   20.8230  -14.1600   -1.3230 C   0  0  1  0  0  0  0  0  0  0  0  0
   19.3090  -14.3550   -1.2380 C   0  0  2  0  0  0  0  0  0  0  0  0
   18.6540  -13.6340   -2.4140 C   0  0  1  0  0  0  0  0  0  0  0  0
   18.9570  -12.1320   -2.3460 C   0  0  2  0  0  0  0  0  0  0  0  0
   20.0130  -11.8280   -1.4530 O   0  0  0  0  0  0  0  0  0  0  0  0
   22.0770  -12.2100   -0.4940 C   0  0  0  0  0  0  0  0  0  0  0  0
   24.4130  -11.2640   -0.6860 C   0  0  0  0  0  0  0  0  0  0  0  0
   24.9970  -12.5020   -0.4120 C   0  0  0  0  0  0  0  0  0  0  0  0
   26.3180  -12.5730   -0.0050 C   0  0  0  0  0  0  0  0  0  0  0  0
   27.0950  -11.4280    0.1390 C   0  0  0  0  0  0  0  0  0  0  0  0
   28.4270  -11.4880    0.5370 C   0  0  0  0  0  0  0  0  0  0  0  0
   29.1800  -10.3270    0.6680 C   0  0  0  0  0  0  0  0  0  0  0  0
   28.6180   -9.0870    0.4080 C   0  0  0  0  0  0  0  0  0  0  0  0
   27.2930   -9.0230    0.0090 C   0  0  0  0  0  0  0  0  0  0  0  0
   26.5230  -10.1810   -0.1300 C   0  0  0  0  0  0  0  0  0  0  0  0
   25.2010  -10.1290   -0.5430 C   0  0  0  0  0  0  0  0  0  0  0  0
   18.8010  -13.8690    0.0130 O   0  0  0  0  0  0  0  0  0  0  0  0
   19.4850  -13.3310    0.4650 H   0  0  0  0  0  0  0  0  0  0  0  0
   21.3740  -15.0200   -2.3590 O   0  0  0  0  0  0  0  0  0  0  0  0
   21.4610  -15.9090   -1.9850 H   0  0  0  0  0  0  0  0  0  0  0  0
   19.2040  -14.1380   -3.6360 O   0  0  0  0  0  0  0  0  0  0  0  0
   19.2460  -15.1090   -3.6130 H   0  0  0  0  0  0  0  0  0  0  0  0
   17.7380  -11.3550   -1.8350 C   0  0  0  0  0  0  0  0  0  0  0  0
   17.7360  -11.2270   -0.4070 O   0  0  0  0  0  0  0  0  0  0  0  0
   18.1990  -10.3980   -0.1650 H   0  0  0  0  0  0  0  0  0  0  0  0
  1 12  1  1  0  0  0
  1 11  1  0  0  0  0
  2  1  1  0  0  0  0
  3  2  1  0  0  0  0
  4  2  1  0  0  0  0
  4  5  1  0  0  0  0
  5 10  1  0  0  0  0
  5 11  1  1  0  0  0
  6  5  1  6  0  0  0
  6  7  1  0  0  0  0
  7 22  1  1  0  0  0
  8 26  1  6  0  0  0
  8  9  1  0  0  0  0
  8  7  1  0  0  0  0
  9 28  1  1  0  0  0
  9 10  1  0  0  0  0
 12 21  2  0  0  0  0
 12 13  1  0  0  0  0
 13 14  2  0  0  0  0
 14 15  1  0  0  0  0
 15 16  2  0  0  0  0
 16 17  1  0  0  0  0
 18 17  2  0  0  0  0
 19 18  1  0  0  0  0
 20 19  2  0  0  0  0
 20 15  1  0  0  0  0
 21 20  1  0  0  0  0
 22 23  1  0  0  0  0
 24 25  1  0  0  0  0
 24  6  1  0  0  0  0
 26 27  1  0  0  0  0
 28 29  1  0  0  0  0
 29 30  1  0  0  0  0
M  END
>  <minimizedAffinity>
-7.94696903

$$$$

 OpenBabel12271915443D

 30 33  0  0  1  0  0  0  0  0999 V2000
   22.3380  -11.7010   -2.0810 C   0  0  1  0  0  0  0  0  0  0  0  0
   23.6870  -12.1200   -1.7390 N   0  0  0  0  0  0  0  0  0  0  0  0
   23.8510  -13.0780   -2.0520 H   0  0  0  0  0  0  0  0  0  0  0  0
   24.6330  -11.3720   -2.4950 O   0  0  0  0  0  0  0  0  0  0  0  0
   23.9710  -10.3480   -3.1920 C   0  0  2  0  0  0  0  0  0  0  0  0
   24.5110  -10.2080   -4.6110 C   0  0  1  0  0  0  0  0  0  0  0  0
   25.0850   -8.8040   -4.8030 C   0  0  2  0  0  0  0  0  0  0  0  0
   25.9920   -8.4790   -3.6180 C   0  0  1  0  0  0  0  0  0  0  0  0
   25.1850   -8.5010   -2.3140 C   0  0  2  0  0  0  0  0  0  0  0  0
   23.9260   -9.1330   -2.4620 O   0  0  0  0  0  0  0  0  0  0  0  0
   22.5320  -10.7870   -3.2650 C   0  0  0  0  0  0  0  0  0  0  0  0
   21.4210  -12.8720   -2.3660 C   0  0  0  0  0  0  0  0  0  0  0  0
   21.8910  -14.1700   -2.1610 C   0  0  0  0  0  0  0  0  0  0  0  0
   21.0570  -15.2540   -2.3710 C   0  0  0  0  0  0  0  0  0  0  0  0
   19.7390  -15.0850   -2.7850 C   0  0  0  0  0  0  0  0  0  0  0  0
   18.8870  -16.1660   -2.9900 C   0  0  0  0  0  0  0  0  0  0  0  0
   17.5740  -15.9660   -3.4000 C   0  0  0  0  0  0  0  0  0  0  0  0
   17.0880  -14.6860   -3.6160 C   0  0  0  0  0  0  0  0  0  0  0  0
   17.9320  -13.6060   -3.4120 C   0  0  0  0  0  0  0  0  0  0  0  0
   19.2550  -13.7910   -2.9980 C   0  0  0  0  0  0  0  0  0  0  0  0
   20.1020  -12.7170   -2.7760 C   0  0  0  0  0  0  0  0  0  0  0  0
   24.0340   -7.8360   -4.9300 O   0  0  0  0  0  0  0  0  0  0  0  0
   23.1790   -8.2340   -4.6650 H   0  0  0  0  0  0  0  0  0  0  0  0
   25.5270  -11.2040   -4.9140 O   0  0  0  0  0  0  0  0  0  0  0  0
   25.5640  -11.2980   -5.8780 H   0  0  0  0  0  0  0  0  0  0  0  0
   27.0110   -9.4800   -3.5210 O   0  0  0  0  0  0  0  0  0  0  0  0
   27.3890   -9.6640   -4.3970 H   0  0  0  0  0  0  0  0  0  0  0  0
   24.8850   -7.0750   -1.8380 C   0  0  0  0  0  0  0  0  0  0  0  0
   24.0210   -7.0570   -0.6940 O   0  0  0  0  0  0  0  0  0  0  0  0
   24.5720   -7.0690    0.1170 H   0  0  0  0  0  0  0  0  0  0  0  0
  1 12  1  6  0  0  0
  1  2  1  0  0  0  0
  3  2  1  0  0  0  0
  4  2  1  0  0  0  0
  5 11  1  6  0  0  0
  5  4  1  0  0  0  0
  5 10  1  0  0  0  0
  6  5  1  1  0  0  0
  7 22  1  1  0  0  0
  7  6  1  0  0  0  0
  7  8  1  0  0  0  0
  8 26  1  1  0  0  0
  8  9  1  0  0  0  0
  9 28  1  6  0  0  0
 10  9  1  0  0  0  0
 11  1  1  0  0  0  0
 12 13  1  0  0  0  0
 14 13  2  0  0  0  0
 15 14  1  0  0  0  0
 16 15  1  0  0  0  0
 17 16  2  0  0  0  0
 18 19  2  0  0  0  0
 18 17  1  0  0  0  0
 19 20  1  0  0  0  0
 20 15  2  0  0  0  0
 20 21  1  0  0  0  0
 21 12  2  0  0  0  0
 22 23  1  0  0  0  0
 24  6  1  0  0  0  0
 25 24  1  0  0  0  0
 27 26  1  0  0  0  0
 28 29  1  0  0  0  0
 29 30  1  0  0  0  0
M  END
>  <minimizedAffinity>
-7.9040184

$$$$

 OpenBabel12271915443D

 30 33  0  0  1  0  0  0  0  0999 V2000
   23.0530  -12.8830   -1.1600 C   0  0  1  0  0  0  0  0  0  0  0  0
   22.1750  -13.0580   -0.0150 N   0  0  0  0  0  0  0  0  0  0  0  0
   22.2840  -12.2810    0.6390 H   0  0  0  0  0  0  0  0  0  0  0  0
   20.8170  -12.9420   -0.4230 O   0  0  0  0  0  0  0  0  0  0  0  0
   20.7530  -12.8770   -1.8240 C   0  0  2  0  0  0  0  0  0  0  0  0
   19.7370  -11.8370   -2.2830 C   0  0  1  0  0  0  0  0  0  0  0  0
   18.6490  -12.5170   -3.1150 C   0  0  2  0  0  0  0  0  0  0  0  0
   18.1680  -13.7610   -2.3700 C   0  0  1  0  0  0  0  0  0  0  0  0
   19.3280  -14.7470   -2.1860 C   0  0  2  0  0  0  0  0  0  0  0  0
   20.5920  -14.1530   -2.4220 O   0  0  0  0  0  0  0  0  0  0  0  0
   22.1250  -12.4360   -2.2620 C   0  0  0  0  0  0  0  0  0  0  0  0
   24.1780  -11.9070   -0.8850 C   0  0  0  0  0  0  0  0  0  0  0  0
   23.9370  -10.5380   -1.0090 C   0  0  0  0  0  0  0  0  0  0  0  0
   24.9370   -9.6260   -0.7180 C   0  0  0  0  0  0  0  0  0  0  0  0
   26.1960  -10.0420   -0.2970 C   0  0  0  0  0  0  0  0  0  0  0  0
   27.2070   -9.1340    0.0070 C   0  0  0  0  0  0  0  0  0  0  0  0
   28.4540   -9.5790    0.4300 C   0  0  0  0  0  0  0  0  0  0  0  0
   28.7180  -10.9340    0.5530 C   0  0  0  0  0  0  0  0  0  0  0  0
   27.7140  -11.8410    0.2520 C   0  0  0  0  0  0  0  0  0  0  0  0
   26.4540  -11.4100   -0.1720 C   0  0  0  0  0  0  0  0  0  0  0  0
   25.4390  -12.3080   -0.4600 C   0  0  0  0  0  0  0  0  0  0  0  0
   19.1410  -12.8540   -4.4190 O   0  0  0  0  0  0  0  0  0  0  0  0
   20.1170  -12.7700   -4.4410 H   0  0  0  0  0  0  0  0  0  0  0  0
   19.1340  -11.1270   -1.1660 O   0  0  0  0  0  0  0  0  0  0  0  0
   18.7970  -10.2840   -1.5040 H   0  0  0  0  0  0  0  0  0  0  0  0
   17.7060  -13.3780   -1.0700 O   0  0  0  0  0  0  0  0  0  0  0  0
   17.1410  -12.5890   -1.1310 H   0  0  0  0  0  0  0  0  0  0  0  0
   19.2170  -15.9080   -3.1810 C   0  0  0  0  0  0  0  0  0  0  0  0
   18.0220  -15.8340   -3.9690 O   0  0  0  0  0  0  0  0  0  0  0  0
   18.2130  -15.3280   -4.7850 H   0  0  0  0  0  0  0  0  0  0  0  0
  1 12  1  1  0  0  0
  1  2  1  0  0  0  0
  2  3  1  0  0  0  0
  4  2  1  0  0  0  0
  5 11  1  6  0  0  0
  5  4  1  0  0  0  0
  6  5  1  1  0  0  0
  6 24  1  0  0  0  0
  7 22  1  6  0  0  0
  7  8  1  0  0  0  0
  7  6  1  0  0  0  0
  8  9  1  0  0  0  0
  8 26  1  1  0  0  0
  9 28  1  6  0  0  0
 10  9  1  0  0  0  0
 10  5  1  0  0  0  0
 11  1  1  0  0  0  0
 12 21  1  0  0  0  0
 13 12  2  0  0  0  0
 13 14  1  0  0  0  0
 14 15  2  0  0  0  0
 15 20  1  0  0  0  0
 15 16  1  0  0  0  0
 16 17  2  0  0  0  0
 17 18  1  0  0  0  0
 19 18  2  0  0  0  0
 20 19  1  0  0  0  0
 21 20  2  0  0  0  0
 23 22  1  0  0  0  0
 25 24  1  0  0  0  0
 27 26  1  0  0  0  0
 29 28  1  0  0  0  0
 30 29  1  0  0  0  0
M  END
>  <minimizedAffinity>
-7.8726325

$$$$
