
 OpenBabel12271915483D

 25 29  0  0  1  0  0  0  0  0999 V2000
   18.8130  -11.1820   -1.1100 C   0  0  1  0  0  0  0  0  0  0  0  0
   19.6980  -12.4360   -1.0920 C   0  0  1  0  0  0  0  0  0  0  0  0
   19.2560  -13.6920   -1.7980 C   0  0  0  0  0  0  0  0  0  0  0  0
   18.0400  -13.7450   -2.4540 C   0  0  0  0  0  0  0  0  0  0  0  0
   17.6460  -14.8810   -3.1170 C   0  0  0  0  0  0  0  0  0  0  0  0
   16.4870  -15.0780   -3.8230 O   0  0  0  0  0  0  0  0  0  0  0  0
   16.5510  -16.4480   -4.2410 C   0  0  0  0  0  0  0  0  0  0  0  0
   17.8250  -17.0110   -3.8980 O   0  0  0  0  0  0  0  0  0  0  0  0
   18.4310  -16.0120   -3.1590 C   0  0  0  0  0  0  0  0  0  0  0  0
   19.6390  -16.0180   -2.5270 C   0  0  0  0  0  0  0  0  0  0  0  0
   20.0800  -14.8680   -1.8430 C   0  0  0  0  0  0  0  0  0  0  0  0
   21.4400  -15.0810   -1.2600 C   0  0  0  0  0  0  0  0  0  0  0  0
   22.2450  -13.8110   -1.0770 C   0  0  0  0  0  0  0  0  0  0  0  0
   21.9680  -12.8290   -2.1630 N   0  0  2  0  0  0  0  0  0  0  0  0
   21.6530  -13.3270   -3.0120 H   0  0  0  0  0  0  0  0  0  0  0  0
   23.1680  -12.0140   -2.4870 C   0  0  0  0  0  0  0  0  0  0  0  0
   23.2030  -10.9800   -1.3650 C   0  0  0  0  0  0  0  0  0  0  0  0
   21.7710  -10.9080   -0.8290 C   0  0  0  0  0  0  0  0  0  0  0  0
   20.9650  -11.8290   -1.7520 C   0  0  2  0  0  0  0  0  0  0  0  0
   20.3270  -11.0370   -2.8540 C   0  0  0  0  0  0  0  0  0  0  0  0
   19.1070  -10.6560   -2.4870 C   0  0  1  0  0  0  0  0  0  0  0  0
   17.4720  -11.3780   -0.8000 O   0  0  0  0  0  0  0  0  0  0  0  0
   17.4180  -11.9680   -0.0460 H   0  0  0  0  0  0  0  0  0  0  0  0
   18.2240  -10.0420   -3.3420 O   0  0  0  0  0  0  0  0  0  0  0  0
   18.7440   -9.2130   -4.3710 C   0  0  0  0  0  0  0  0  0  0  0  0
  1  2  1  0  0  0  0
  1 22  1  6  0  0  0
  2 19  1  6  0  0  0
  3  2  1  0  0  0  0
  4  3  1  0  0  0  0
  5  4  2  0  0  0  0
  6  5  1  0  0  0  0
  7  8  1  0  0  0  0
  7  6  1  0  0  0  0
  8  9  1  0  0  0  0
  9  5  1  0  0  0  0
  9 10  2  0  0  0  0
 10 11  1  0  0  0  0
 11  3  2  0  0  0  0
 11 12  1  0  0  0  0
 12 13  1  0  0  0  0
 14 19  1  1  0  0  0
 14 13  1  0  0  0  0
 15 14  1  0  0  0  0
 16 14  1  0  0  0  0
 16 17  1  0  0  0  0
 17 18  1  0  0  0  0
 19 20  1  6  0  0  0
 19 18  1  0  0  0  0
 20 21  1  0  0  0  0
 21 24  1  6  0  0  0
 21  1  1  0  0  0  0
 22 23  1  0  0  0  0
 25 24  1  0  0  0  0
M  END
>  <minimizedAffinity>
-8.20271492

$$$$

 OpenBabel12271915483D

 25 29  0  0  1  0  0  0  0  0999 V2000
   21.7380  -11.0590   -3.1000 C   0  0  1  0  0  0  0  0  0  0  0  0
   22.5190  -12.2170   -2.4630 C   0  0  1  0  0  0  0  0  0  0  0  0
   23.8000  -11.9510   -1.7140 C   0  0  0  0  0  0  0  0  0  0  0  0
   24.3050  -10.6680   -1.6070 C   0  0  0  0  0  0  0  0  0  0  0  0
   25.4590  -10.4210   -0.9070 C   0  0  0  0  0  0  0  0  0  0  0  0
   26.0690   -9.2100   -0.6980 O   0  0  0  0  0  0  0  0  0  0  0  0
   27.2640   -9.5320    0.0250 C   0  0  0  0  0  0  0  0  0  0  0  0
   27.2780  -10.9250    0.3660 O   0  0  0  0  0  0  0  0  0  0  0  0
   26.1660  -11.4270   -0.2840 C   0  0  0  0  0  0  0  0  0  0  0  0
   25.7160  -12.7120   -0.3590 C   0  0  0  0  0  0  0  0  0  0  0  0
   24.5310  -13.0020   -1.0640 C   0  0  0  0  0  0  0  0  0  0  0  0
   24.2060  -14.4600   -0.9840 C   0  0  0  0  0  0  0  0  0  0  0  0
   22.7310  -14.7760   -1.1280 C   0  0  0  0  0  0  0  0  0  0  0  0
   21.8840  -13.7160   -0.5130 N   0  0  2  0  0  0  0  0  0  0  0  0
   22.4130  -13.2340    0.2310 H   0  0  0  0  0  0  0  0  0  0  0  0
   20.6310  -14.2770    0.0590 C   0  0  0  0  0  0  0  0  0  0  0  0
   19.7440  -14.4750   -1.1670 C   0  0  0  0  0  0  0  0  0  0  0  0
   20.2960  -13.5240   -2.2320 C   0  0  0  0  0  0  0  0  0  0  0  0
   21.4070  -12.7470   -1.5170 C   0  0  2  0  0  0  0  0  0  0  0  0
   20.8800  -11.4470   -0.9870 C   0  0  0  0  0  0  0  0  0  0  0  0
   21.0540  -10.4880   -1.8900 C   0  0  1  0  0  0  0  0  0  0  0  0
   22.4830  -10.1690   -3.8640 O   0  0  0  0  0  0  0  0  0  0  0  0
   23.0890  -10.6720   -4.4120 H   0  0  0  0  0  0  0  0  0  0  0  0
   20.8030   -9.1610   -1.6340 O   0  0  0  0  0  0  0  0  0  0  0  0
   20.8210   -8.7180   -0.2850 C   0  0  0  0  0  0  0  0  0  0  0  0
  1 22  1  1  0  0  0
  1  2  1  0  0  0  0
  1 21  1  0  0  0  0
  2  3  1  0  0  0  0
  2 19  1  1  0  0  0
  3  4  1  0  0  0  0
  3 11  2  0  0  0  0
  4  5  2  0  0  0  0
  5  6  1  0  0  0  0
  5  9  1  0  0  0  0
  6  7  1  0  0  0  0
  7  8  1  0  0  0  0
  9  8  1  0  0  0  0
 10  9  2  0  0  0  0
 11 12  1  0  0  0  0
 11 10  1  0  0  0  0
 13 12  1  0  0  0  0
 13 14  1  0  0  0  0
 14 19  1  6  0  0  0
 14 16  1  0  0  0  0
 14 15  1  0  0  0  0
 17 16  1  0  0  0  0
 18 17  1  0  0  0  0
 19 18  1  6  0  0  0
 19 20  1  0  0  0  0
 21 24  1  1  0  0  0
 21 20  1  0  0  0  0
 23 22  1  0  0  0  0
 24 25  1  0  0  0  0
M  END
>  <minimizedAffinity>
-7.42209387

$$$$

 OpenBabel12271915483D

 25 29  0  0  1  0  0  0  0  0999 V2000
   20.7770  -14.0080   -0.4720 C   0  0  1  0  0  0  0  0  0  0  0  0
   20.0690  -12.9040   -1.2710 C   0  0  1  0  0  0  0  0  0  0  0  0
   20.8530  -12.0140   -2.2010 C   0  0  0  0  0  0  0  0  0  0  0  0
   22.2220  -12.1600   -2.3360 C   0  0  0  0  0  0  0  0  0  0  0  0
   22.9320  -11.3660   -3.2000 C   0  0  0  0  0  0  0  0  0  0  0  0
   24.2800  -11.4030   -3.4540 O   0  0  0  0  0  0  0  0  0  0  0  0
   24.5010  -10.3210   -4.3690 C   0  0  0  0  0  0  0  0  0  0  0  0
   23.2500   -9.7420   -4.7620 O   0  0  0  0  0  0  0  0  0  0  0  0
   22.3280  -10.3930   -3.9650 C   0  0  0  0  0  0  0  0  0  0  0  0
   20.9800  -10.2030   -3.8710 C   0  0  0  0  0  0  0  0  0  0  0  0
   20.2170  -11.0040   -2.9990 C   0  0  0  0  0  0  0  0  0  0  0  0
   18.7660  -10.6520   -3.0840 C   0  0  0  0  0  0  0  0  0  0  0  0
   17.8280  -11.7860   -2.7220 C   0  0  0  0  0  0  0  0  0  0  0  0
   18.3750  -13.1030   -3.1530 N   0  0  2  0  0  0  0  0  0  0  0  0
   19.0160  -12.9720   -3.9520 H   0  0  0  0  0  0  0  0  0  0  0  0
   17.2930  -14.0470   -3.5410 C   0  0  0  0  0  0  0  0  0  0  0  0
   16.7640  -14.5450   -2.1990 C   0  0  0  0  0  0  0  0  0  0  0  0
   17.8990  -14.3140   -1.1980 C   0  0  0  0  0  0  0  0  0  0  0  0
   19.0640  -13.7970   -2.0480 C   0  0  2  0  0  0  0  0  0  0  0  0
   19.9710  -14.9260   -2.4370 C   0  0  0  0  0  0  0  0  0  0  0  0
   20.9390  -15.0580   -1.5360 C   0  0  1  0  0  0  0  0  0  0  0  0
   21.9340  -13.6280    0.1990 O   0  0  0  0  0  0  0  0  0  0  0  0
   21.7750  -12.7830    0.6230 H   0  0  0  0  0  0  0  0  0  0  0  0
   22.0030  -15.9120   -1.6960 O   0  0  0  0  0  0  0  0  0  0  0  0
   22.9900  -15.5880   -2.6650 C   0  0  0  0  0  0  0  0  0  0  0  0
  1 22  1  6  0  0  0
  2 19  1  6  0  0  0
  2  1  1  0  0  0  0
  3  2  1  0  0  0  0
  4  3  1  0  0  0  0
  5  4  2  0  0  0  0
  6  5  1  0  0  0  0
  7  6  1  0  0  0  0
  8  7  1  0  0  0  0
  8  9  1  0  0  0  0
  9 10  2  0  0  0  0
  9  5  1  0  0  0  0
 10 11  1  0  0  0  0
 11  3  2  0  0  0  0
 12 11  1  0  0  0  0
 12 13  1  0  0  0  0
 14 13  1  0  0  0  0
 14 19  1  1  0  0  0
 15 14  1  0  0  0  0
 16 14  1  0  0  0  0
 16 17  1  0  0  0  0
 17 18  1  0  0  0  0
 19 20  1  6  0  0  0
 19 18  1  0  0  0  0
 20 21  1  0  0  0  0
 21 24  1  6  0  0  0
 21  1  1  0  0  0  0
 22 23  1  0  0  0  0
 25 24  1  0  0  0  0
M  END
>  <minimizedAffinity>
-7.37097597

$$$$

 OpenBabel12271915483D

 25 29  0  0  1  0  0  0  0  0999 V2000
   20.7520  -11.1230   -3.3600 C   0  0  1  0  0  0  0  0  0  0  0  0
   21.1510  -12.4900   -2.7850 C   0  0  1  0  0  0  0  0  0  0  0  0
   22.4610  -12.6570   -2.0580 C   0  0  0  0  0  0  0  0  0  0  0  0
   23.3340  -11.5940   -1.9160 C   0  0  0  0  0  0  0  0  0  0  0  0
   24.5160  -11.7400   -1.2350 C   0  0  0  0  0  0  0  0  0  0  0  0
   25.4680  -10.7820   -0.9960 O   0  0  0  0  0  0  0  0  0  0  0  0
   26.5180  -11.4820   -0.3140 C   0  0  0  0  0  0  0  0  0  0  0  0
   26.1100  -12.8270   -0.0260 O   0  0  0  0  0  0  0  0  0  0  0  0
   24.8900  -12.9380   -0.6680 C   0  0  0  0  0  0  0  0  0  0  0  0
   24.0700  -14.0220   -0.7800 C   0  0  0  0  0  0  0  0  0  0  0  0
   22.8450  -13.9080   -1.4660 C   0  0  0  0  0  0  0  0  0  0  0  0
   22.0920  -15.2000   -1.4330 C   0  0  0  0  0  0  0  0  0  0  0  0
   20.5890  -15.0470   -1.5530 C   0  0  0  0  0  0  0  0  0  0  0  0
   20.1120  -13.8070   -0.8780 N   0  0  2  0  0  0  0  0  0  0  0  0
   20.7720  -13.5400   -0.1290 H   0  0  0  0  0  0  0  0  0  0  0  0
   18.7550  -13.9840   -0.2980 C   0  0  0  0  0  0  0  0  0  0  0  0
   17.8360  -13.8510   -1.5090 C   0  0  0  0  0  0  0  0  0  0  0  0
   18.6390  -13.0680   -2.5500 C   0  0  0  0  0  0  0  0  0  0  0  0
   19.9420  -12.6970   -1.8340 C   0  0  2  0  0  0  0  0  0  0  0  0
   19.8420  -11.3220   -1.2420 C   0  0  0  0  0  0  0  0  0  0  0  0
   20.2890  -10.4230   -2.1130 C   0  0  1  0  0  0  0  0  0  0  0  0
   21.7240  -10.4690   -4.1080 O   0  0  0  0  0  0  0  0  0  0  0  0
   22.1420  -11.1080   -4.6880 H   0  0  0  0  0  0  0  0  0  0  0  0
   20.4570   -9.0950   -1.8020 O   0  0  0  0  0  0  0  0  0  0  0  0
   20.9120   -8.7580   -0.4990 C   0  0  0  0  0  0  0  0  0  0  0  0
  1 22  1  1  0  0  0
  1  2  1  0  0  0  0
  1 21  1  0  0  0  0
  2  3  1  0  0  0  0
  2 19  1  1  0  0  0
  3  4  1  0  0  0  0
  3 11  2  0  0  0  0
  4  5  2  0  0  0  0
  5  6  1  0  0  0  0
  5  9  1  0  0  0  0
  6  7  1  0  0  0  0
  7  8  1  0  0  0  0
  9  8  1  0  0  0  0
 10  9  2  0  0  0  0
 11 12  1  0  0  0  0
 11 10  1  0  0  0  0
 13 12  1  0  0  0  0
 13 14  1  0  0  0  0
 14 19  1  6  0  0  0
 14 16  1  0  0  0  0
 14 15  1  0  0  0  0
 17 16  1  0  0  0  0
 18 17  1  0  0  0  0
 19 18  1  6  0  0  0
 19 20  1  0  0  0  0
 21 24  1  1  0  0  0
 21 20  1  0  0  0  0
 23 22  1  0  0  0  0
 24 25  1  0  0  0  0
M  END
>  <minimizedAffinity>
-7.16526175

$$$$

 OpenBabel12271915483D

 25 29  0  0  1  0  0  0  0  0999 V2000
   22.9080  -10.5690   -0.6990 C   0  0  1  0  0  0  0  0  0  0  0  0
   21.9530  -11.7520   -0.4800 C   0  0  1  0  0  0  0  0  0  0  0  0
   20.5060  -11.6490   -0.8900 C   0  0  0  0  0  0  0  0  0  0  0  0
   20.0080  -10.4840   -1.4470 C   0  0  0  0  0  0  0  0  0  0  0  0
   18.6970  -10.3970   -1.8410 C   0  0  0  0  0  0  0  0  0  0  0  0
   18.0670   -9.3260   -2.4220 O   0  0  0  0  0  0  0  0  0  0  0  0
   16.7020   -9.7430   -2.5570 C   0  0  0  0  0  0  0  0  0  0  0  0
   16.5670  -11.1220   -2.1840 O   0  0  0  0  0  0  0  0  0  0  0  0
   17.8200  -11.4500   -1.7020 C   0  0  0  0  0  0  0  0  0  0  0  0
   18.2540  -12.6220   -1.1550 C   0  0  0  0  0  0  0  0  0  0  0  0
   19.5960  -12.7500   -0.7460 C   0  0  0  0  0  0  0  0  0  0  0  0
   19.8630  -14.1230   -0.2150 C   0  0  0  0  0  0  0  0  0  0  0  0
   21.3060  -14.5690   -0.3420 C   0  0  0  0  0  0  0  0  0  0  0  0
   21.9320  -14.0390   -1.5850 N   0  0  2  0  0  0  0  0  0  0  0  0
   21.2040  -13.8600   -2.2960 H   0  0  0  0  0  0  0  0  0  0  0  0
   22.9380  -14.9830   -2.1400 C   0  0  0  0  0  0  0  0  0  0  0  0
   24.1600  -14.7530   -1.2550 C   0  0  0  0  0  0  0  0  0  0  0  0
   23.9780  -13.3550   -0.6580 C   0  0  0  0  0  0  0  0  0  0  0  0
   22.7090  -12.8120   -1.3250 C   0  0  2  0  0  0  0  0  0  0  0  0
   23.0610  -11.9830   -2.5240 C   0  0  0  0  0  0  0  0  0  0  0  0
   23.1880  -10.7090   -2.1690 C   0  0  1  0  0  0  0  0  0  0  0  0
   22.4480   -9.3280   -0.2750 O   0  0  0  0  0  0  0  0  0  0  0  0
   22.0360   -9.4350    0.5850 H   0  0  0  0  0  0  0  0  0  0  0  0
   23.3630   -9.6900   -3.0750 O   0  0  0  0  0  0  0  0  0  0  0  0
   22.5280   -9.6570   -4.2240 C   0  0  0  0  0  0  0  0  0  0  0  0
  1  2  1  0  0  0  0
  1 22  1  6  0  0  0
  2 19  1  6  0  0  0
  3 11  2  0  0  0  0
  3  2  1  0  0  0  0
  4  3  1  0  0  0  0
  5  9  1  0  0  0  0
  5  4  2  0  0  0  0
  6  5  1  0  0  0  0
  7  6  1  0  0  0  0
  7  8  1  0  0  0  0
  8  9  1  0  0  0  0
  9 10  2  0  0  0  0
 10 11  1  0  0  0  0
 11 12  1  0  0  0  0
 13 12  1  0  0  0  0
 14 19  1  1  0  0  0
 14 13  1  0  0  0  0
 15 14  1  0  0  0  0
 16 14  1  0  0  0  0
 16 17  1  0  0  0  0
 17 18  1  0  0  0  0
 19 20  1  6  0  0  0
 19 18  1  0  0  0  0
 20 21  1  0  0  0  0
 21 24  1  6  0  0  0
 21  1  1  0  0  0  0
 22 23  1  0  0  0  0
 25 24  1  0  0  0  0
M  END
>  <minimizedAffinity>
-7.16487217

$$$$

 OpenBabel12271915483D

 25 29  0  0  1  0  0  0  0  0999 V2000
   21.8330  -14.6080   -1.9820 C   0  0  1  0  0  0  0  0  0  0  0  0
   22.6090  -13.3630   -2.4360 C   0  0  1  0  0  0  0  0  0  0  0  0
   21.8720  -12.1270   -2.8860 C   0  0  0  0  0  0  0  0  0  0  0  0
   20.4900  -12.1000   -2.9190 C   0  0  0  0  0  0  0  0  0  0  0  0
   19.8170  -10.9680   -3.3060 C   0  0  0  0  0  0  0  0  0  0  0  0
   18.4600  -10.7830   -3.3720 O   0  0  0  0  0  0  0  0  0  0  0  0
   18.3050   -9.4590   -3.9030 C   0  0  0  0  0  0  0  0  0  0  0  0
   19.5820   -8.8160   -4.0100 O   0  0  0  0  0  0  0  0  0  0  0  0
   20.4760   -9.8170   -3.6790 C   0  0  0  0  0  0  0  0  0  0  0  0
   21.8400   -9.7880   -3.6690 C   0  0  0  0  0  0  0  0  0  0  0  0
   22.5640  -10.9290   -3.2700 C   0  0  0  0  0  0  0  0  0  0  0  0
   24.0350  -10.6640   -3.2960 C   0  0  0  0  0  0  0  0  0  0  0  0
   24.8390  -11.5200   -2.3390 C   0  0  0  0  0  0  0  0  0  0  0  0
   24.0810  -11.7940   -1.0860 N   0  0  2  0  0  0  0  0  0  0  0  0
   23.3930  -11.0410   -0.9210 H   0  0  0  0  0  0  0  0  0  0  0  0
   24.9840  -11.9000    0.0910 C   0  0  0  0  0  0  0  0  0  0  0  0
   25.5620  -13.3070   -0.0370 C   0  0  0  0  0  0  0  0  0  0  0  0
   24.5650  -14.0840   -0.9000 C   0  0  0  0  0  0  0  0  0  0  0  0
   23.4080  -13.1050   -1.1300 C   0  0  2  0  0  0  0  0  0  0  0  0
   22.3240  -13.3290   -0.1170 C   0  0  0  0  0  0  0  0  0  0  0  0
   21.4340  -14.1940   -0.5940 C   0  0  1  0  0  0  0  0  0  0  0  0
   20.8060  -15.0240   -2.8200 O   0  0  0  0  0  0  0  0  0  0  0  0
   21.1160  -14.9800   -3.7270 H   0  0  0  0  0  0  0  0  0  0  0  0
   20.2530  -14.4850    0.0460 O   0  0  0  0  0  0  0  0  0  0  0  0
   19.1710  -13.5730   -0.0840 C   0  0  0  0  0  0  0  0  0  0  0  0
  1 22  1  6  0  0  0
  1 21  1  0  0  0  0
  2  1  1  0  0  0  0
  2 19  1  1  0  0  0
  3  2  1  0  0  0  0
  4  3  1  0  0  0  0
  5  4  2  0  0  0  0
  6  5  1  0  0  0  0
  7  6  1  0  0  0  0
  8  7  1  0  0  0  0
  8  9  1  0  0  0  0
  9 10  2  0  0  0  0
  9  5  1  0  0  0  0
 10 11  1  0  0  0  0
 11  3  2  0  0  0  0
 12 11  1  0  0  0  0
 12 13  1  0  0  0  0
 13 14  1  0  0  0  0
 14 19  1  6  0  0  0
 14 15  1  0  0  0  0
 14 16  1  0  0  0  0
 17 16  1  0  0  0  0
 18 17  1  0  0  0  0
 19 18  1  1  0  0  0
 19 20  1  0  0  0  0
 21 20  1  0  0  0  0
 21 24  1  6  0  0  0
 23 22  1  0  0  0  0
 25 24  1  0  0  0  0
M  END
>  <minimizedAffinity>
-7.10272551

$$$$

 OpenBabel12271915483D

 25 29  0  0  1  0  0  0  0  0999 V2000
   22.7670   -9.1950   -0.4620 C   0  0  1  0  0  0  0  0  0  0  0  0
   23.5680  -10.4990   -0.3270 C   0  0  1  0  0  0  0  0  0  0  0  0
   22.9080  -11.8290   -0.5850 C   0  0  0  0  0  0  0  0  0  0  0  0
   21.5690  -11.9010   -0.9240 C   0  0  0  0  0  0  0  0  0  0  0  0
   20.9720  -13.1100   -1.1820 C   0  0  0  0  0  0  0  0  0  0  0  0
   19.6700  -13.3400   -1.5450 O   0  0  0  0  0  0  0  0  0  0  0  0
   19.5640  -14.7680   -1.6130 C   0  0  0  0  0  0  0  0  0  0  0  0
   20.8530  -15.3700   -1.4290 O   0  0  0  0  0  0  0  0  0  0  0  0
   21.6670  -14.2980   -1.1130 C   0  0  0  0  0  0  0  0  0  0  0  0
   22.9890  -14.2870   -0.7800 C   0  0  0  0  0  0  0  0  0  0  0  0
   23.6370  -13.0640   -0.5160 C   0  0  0  0  0  0  0  0  0  0  0  0
   25.0850  -13.2810   -0.2110 C   0  0  0  0  0  0  0  0  0  0  0  0
   25.9730  -12.0960   -0.5310 C   0  0  0  0  0  0  0  0  0  0  0  0
   25.4940  -11.3660   -1.7380 N   0  0  2  0  0  0  0  0  0  0  0  0
   24.9610  -12.0090   -2.3470 H   0  0  0  0  0  0  0  0  0  0  0  0
   26.6210  -10.7800   -2.5100 C   0  0  0  0  0  0  0  0  0  0  0  0
   26.9740   -9.5250   -1.7160 C   0  0  0  0  0  0  0  0  0  0  0  0
   25.7170   -9.1800   -0.9130 C   0  0  0  0  0  0  0  0  0  0  0  0
   24.6700  -10.1970   -1.3790 C   0  0  2  0  0  0  0  0  0  0  0  0
   23.8270   -9.6170   -2.4750 C   0  0  0  0  0  0  0  0  0  0  0  0
   22.7510   -9.0340   -1.9560 C   0  0  1  0  0  0  0  0  0  0  0  0
   21.5320   -9.1710    0.1730 O   0  0  0  0  0  0  0  0  0  0  0  0
   21.6300   -9.5630    1.0430 H   0  0  0  0  0  0  0  0  0  0  0  0
   21.7210   -8.5430   -2.7220 O   0  0  0  0  0  0  0  0  0  0  0  0
   21.1130   -9.4050   -3.6730 C   0  0  0  0  0  0  0  0  0  0  0  0
  1  2  1  0  0  0  0
  1 22  1  6  0  0  0
  2 19  1  6  0  0  0
  3 11  2  0  0  0  0
  3  2  1  0  0  0  0
  4  3  1  0  0  0  0
  5  9  1  0  0  0  0
  5  4  2  0  0  0  0
  6  5  1  0  0  0  0
  7  6  1  0  0  0  0
  7  8  1  0  0  0  0
  8  9  1  0  0  0  0
  9 10  2  0  0  0  0
 10 11  1  0  0  0  0
 11 12  1  0  0  0  0
 13 12  1  0  0  0  0
 14 19  1  1  0  0  0
 14 13  1  0  0  0  0
 15 14  1  0  0  0  0
 16 14  1  0  0  0  0
 16 17  1  0  0  0  0
 17 18  1  0  0  0  0
 19 20  1  6  0  0  0
 19 18  1  0  0  0  0
 20 21  1  0  0  0  0
 21 24  1  6  0  0  0
 21  1  1  0  0  0  0
 22 23  1  0  0  0  0
 25 24  1  0  0  0  0
M  END
>  <minimizedAffinity>
-7.09718132

$$$$

 OpenBabel12271915483D

 25 29  0  0  1  0  0  0  0  0999 V2000
   19.2380  -13.4910   -1.2220 C   0  0  1  0  0  0  0  0  0  0  0  0
   19.8950  -12.1260   -0.9730 C   0  0  1  0  0  0  0  0  0  0  0  0
   21.3830  -12.0250   -0.7520 C   0  0  0  0  0  0  0  0  0  0  0  0
   22.1770  -13.1570   -0.7470 C   0  0  0  0  0  0  0  0  0  0  0  0
   23.5350  -13.0640   -0.5700 C   0  0  0  0  0  0  0  0  0  0  0  0
   24.4490  -14.0870   -0.5590 O   0  0  0  0  0  0  0  0  0  0  0  0
   25.6980  -13.4460   -0.2640 C   0  0  0  0  0  0  0  0  0  0  0  0
   25.5320  -12.0220   -0.2460 O   0  0  0  0  0  0  0  0  0  0  0  0
   24.1670  -11.8540   -0.3860 C   0  0  0  0  0  0  0  0  0  0  0  0
   23.4330  -10.7050   -0.3780 C   0  0  0  0  0  0  0  0  0  0  0  0
   22.0380  -10.7610   -0.5650 C   0  0  0  0  0  0  0  0  0  0  0  0
   21.4430   -9.3890   -0.5590 C   0  0  0  0  0  0  0  0  0  0  0  0
   20.1520   -9.2670   -1.3440 C   0  0  0  0  0  0  0  0  0  0  0  0
   20.1600  -10.1480   -2.5450 N   0  0  2  0  0  0  0  0  0  0  0  0
   21.1330  -10.3200   -2.8460 H   0  0  0  0  0  0  0  0  0  0  0  0
   19.3940   -9.5500   -3.6710 C   0  0  0  0  0  0  0  0  0  0  0  0
   17.9420   -9.8310   -3.2960 C   0  0  0  0  0  0  0  0  0  0  0  0
   17.9900  -11.0180   -2.3300 C   0  0  0  0  0  0  0  0  0  0  0  0
   19.4660  -11.4250   -2.2900 C   0  0  2  0  0  0  0  0  0  0  0  0
   19.7320  -12.5310   -3.2680 C   0  0  0  0  0  0  0  0  0  0  0  0
   19.5890  -13.7080   -2.6670 C   0  0  1  0  0  0  0  0  0  0  0  0
   19.5940  -14.5080   -0.3430 O   0  0  0  0  0  0  0  0  0  0  0  0
   19.5940  -14.1520    0.5480 H   0  0  0  0  0  0  0  0  0  0  0  0
   19.9100  -14.9010   -3.2680 O   0  0  0  0  0  0  0  0  0  0  0  0
   18.9070  -15.9030   -3.3580 C   0  0  0  0  0  0  0  0  0  0  0  0
  1  2  1  0  0  0  0
  1 22  1  1  0  0  0
  2 19  1  6  0  0  0
  2  3  1  0  0  0  0
  3  4  1  0  0  0  0
  3 11  2  0  0  0  0
  4  5  2  0  0  0  0
  5  6  1  0  0  0  0
  5  9  1  0  0  0  0
  6  7  1  0  0  0  0
  7  8  1  0  0  0  0
  9 10  2  0  0  0  0
  9  8  1  0  0  0  0
 11 12  1  0  0  0  0
 11 10  1  0  0  0  0
 13 12  1  0  0  0  0
 14 19  1  1  0  0  0
 14 13  1  0  0  0  0
 15 14  1  0  0  0  0
 16 17  1  0  0  0  0
 16 14  1  0  0  0  0
 17 18  1  0  0  0  0
 18 19  1  0  0  0  0
 19 20  1  6  0  0  0
 20 21  1  0  0  0  0
 21 24  1  1  0  0  0
 21  1  1  0  0  0  0
 22 23  1  0  0  0  0
 25 24  1  0  0  0  0
M  END
>  <minimizedAffinity>
-7.03333664

$$$$

 OpenBabel12271915483D

 25 29  0  0  1  0  0  0  0  0999 V2000
   22.7970  -11.4400   -0.5510 C   0  0  1  0  0  0  0  0  0  0  0  0
   21.4110  -12.1000   -0.5940 C   0  0  1  0  0  0  0  0  0  0  0  0
   20.2080  -11.3160   -1.0550 C   0  0  0  0  0  0  0  0  0  0  0  0
   20.3260   -9.9890   -1.4240 C   0  0  0  0  0  0  0  0  0  0  0  0
   19.2360   -9.2820   -1.8660 C   0  0  0  0  0  0  0  0  0  0  0  0
   19.1990   -7.9750   -2.2820 O   0  0  0  0  0  0  0  0  0  0  0  0
   17.8140   -7.7280   -2.5590 C   0  0  0  0  0  0  0  0  0  0  0  0
   17.0610   -8.9430   -2.4420 O   0  0  0  0  0  0  0  0  0  0  0  0
   17.9850   -9.8500   -1.9590 C   0  0  0  0  0  0  0  0  0  0  0  0
   17.8090  -11.1550   -1.6050 C   0  0  0  0  0  0  0  0  0  0  0  0
   18.9070  -11.9140   -1.1540 C   0  0  0  0  0  0  0  0  0  0  0  0
   18.4970  -13.3220   -0.8580 C   0  0  0  0  0  0  0  0  0  0  0  0
   19.6160  -14.3350   -0.9860 C   0  0  0  0  0  0  0  0  0  0  0  0
   20.5570  -13.9720   -2.0820 N   0  0  2  0  0  0  0  0  0  0  0  0
   20.0680  -13.3980   -2.7880 H   0  0  0  0  0  0  0  0  0  0  0  0
   21.1270  -15.1780   -2.7400 C   0  0  0  0  0  0  0  0  0  0  0  0
   22.2100  -15.6300   -1.7650 C   0  0  0  0  0  0  0  0  0  0  0  0
   22.5670  -14.3890   -0.9430 C   0  0  0  0  0  0  0  0  0  0  0  0
   21.7430  -13.2600   -1.5710 C   0  0  2  0  0  0  0  0  0  0  0  0
   22.5590  -12.5170   -2.5850 C   0  0  0  0  0  0  0  0  0  0  0  0
   23.1710  -11.4890   -2.0060 C   0  0  1  0  0  0  0  0  0  0  0  0
   22.8600  -10.1930    0.0590 O   0  0  0  0  0  0  0  0  0  0  0  0
   22.3390  -10.2220    0.8640 H   0  0  0  0  0  0  0  0  0  0  0  0
   23.8730  -10.5390   -2.7090 O   0  0  0  0  0  0  0  0  0  0  0  0
   24.4490  -10.9090   -3.9550 C   0  0  0  0  0  0  0  0  0  0  0  0
  1 22  1  6  0  0  0
  2 19  1  6  0  0  0
  2  1  1  0  0  0  0
  3  2  1  0  0  0  0
  4  3  1  0  0  0  0
  5  4  2  0  0  0  0
  6  5  1  0  0  0  0
  7  8  1  0  0  0  0
  7  6  1  0  0  0  0
  8  9  1  0  0  0  0
  9  5  1  0  0  0  0
  9 10  2  0  0  0  0
 10 11  1  0  0  0  0
 11  3  2  0  0  0  0
 11 12  1  0  0  0  0
 13 12  1  0  0  0  0
 14 19  1  1  0  0  0
 14 13  1  0  0  0  0
 15 14  1  0  0  0  0
 16 14  1  0  0  0  0
 16 17  1  0  0  0  0
 17 18  1  0  0  0  0
 19 20  1  6  0  0  0
 19 18  1  0  0  0  0
 20 21  1  0  0  0  0
 21 24  1  6  0  0  0
 21  1  1  0  0  0  0
 22 23  1  0  0  0  0
 25 24  1  0  0  0  0
M  END
>  <minimizedAffinity>
-6.86134243

$$$$
