
 OpenBabel12271915223D

 27 29  0  0  1  0  0  0  0  0999 V2000
   22.9400   65.0070   32.4010 C   0  0  1  0  0  0  0  0  0  0  0  0
   23.7100   65.2800   33.6080 N   0  0  0  0  0  0  0  0  0  0  0  0
   23.4530   66.1130   34.2410 H   0  0  0  0  0  0  0  0  0  0  0  0
   23.5450   64.0040   34.4540 O   0  0  0  0  0  0  0  0  0  0  0  0
   23.3780   62.9850   33.3870 C   0  0  2  0  0  0  0  0  0  0  0  0
   22.9780   61.6800   34.0010 C   0  0  1  0  0  0  0  0  0  0  0  0
   24.0260   61.2880   35.0150 C   0  0  2  0  0  0  0  0  0  0  0  0
   25.3930   61.1780   34.3470 C   0  0  1  0  0  0  0  0  0  0  0  0
   25.7170   62.3290   33.4130 C   0  0  2  0  0  0  0  0  0  0  0  0
   24.5920   62.7670   32.6180 O   0  0  0  0  0  0  0  0  0  0  0  0
   22.4060   63.5990   32.4620 C   0  0  0  0  0  0  0  0  0  0  0  0
   21.8890   66.0440   32.1280 C   0  0  0  0  0  0  0  0  0  0  0  0
   20.5470   65.6910   32.2030 C   0  0  0  0  0  0  0  0  0  0  0  0
   19.5550   66.6480   31.9840 C   0  0  0  0  0  0  0  0  0  0  0  0
   19.9050   67.9690   31.7030 C   0  0  0  0  0  0  0  0  0  0  0  0
   18.8100   68.9600   31.4700 C   0  0  0  0  0  0  0  0  0  0  0  0
   21.2450   68.3170   31.6160 C   0  0  0  0  0  0  0  0  0  0  0  0
   22.2370   67.3720   31.8360 C   0  0  0  0  0  0  0  0  0  0  0  0
   23.7150   59.9820   35.5820 O   0  0  0  0  0  0  0  0  0  0  0  0
   24.5370   59.7040   36.0250 H   0  0  0  0  0  0  0  0  0  0  0  0
   21.6690   61.7990   34.6220 O   0  0  0  0  0  0  0  0  0  0  0  0
   21.2460   60.9450   34.4410 H   0  0  0  0  0  0  0  0  0  0  0  0
   26.4060   61.1450   35.3960 O   0  0  0  0  0  0  0  0  0  0  0  0
   26.6180   62.0660   35.6320 H   0  0  0  0  0  0  0  0  0  0  0  0
   26.7540   61.8970   32.4020 C   0  0  0  0  0  0  0  0  0  0  0  0
   27.4050   60.6850   32.8660 O   0  0  0  0  0  0  0  0  0  0  0  0
   28.3640   60.8260   32.7880 H   0  0  0  0  0  0  0  0  0  0  0  0
  1 12  1  1  0  0  0
  1 11  1  0  0  0  0
  1  2  1  0  0  0  0
  2  3  1  0  0  0  0
  2  4  1  0  0  0  0
  5 11  1  6  0  0  0
  5  4  1  0  0  0  0
  6  5  1  1  0  0  0
  6 21  1  0  0  0  0
  6  7  1  0  0  0  0
  7 19  1  6  0  0  0
  8  7  1  0  0  0  0
  8 23  1  1  0  0  0
  9 25  1  6  0  0  0
  9  8  1  0  0  0  0
 10  5  1  0  0  0  0
 10  9  1  0  0  0  0
 12 13  1  0  0  0  0
 14 13  2  0  0  0  0
 15 14  1  0  0  0  0
 16 15  1  0  0  0  0
 17 15  2  0  0  0  0
 17 18  1  0  0  0  0
 18 12  2  0  0  0  0
 19 20  1  0  0  0  0
 22 21  1  0  0  0  0
 23 24  1  0  0  0  0
 25 26  1  0  0  0  0
 27 26  1  0  0  0  0
M  END
>  <minimizedAffinity>
-8.44297409

$$$$

 OpenBabel12271915223D

 27 29  0  0  1  0  0  0  0  0999 V2000
   20.5430   61.5390   33.4920 C   0  0  1  0  0  0  0  0  0  0  0  0
   21.3540   61.0840   32.3700 N   0  0  0  0  0  0  0  0  0  0  0  0
   20.8920   60.8410   31.4270 H   0  0  0  0  0  0  0  0  0  0  0  0
   22.3220   62.2530   32.1090 O   0  0  0  0  0  0  0  0  0  0  0  0
   22.4410   62.8230   33.4740 C   0  0  2  0  0  0  0  0  0  0  0  0
   23.1780   64.1240   33.4090 C   0  0  1  0  0  0  0  0  0  0  0  0
   24.5220   63.8820   32.7640 C   0  0  2  0  0  0  0  0  0  0  0  0
   25.3120   62.8490   33.5620 C   0  0  1  0  0  0  0  0  0  0  0  0
   24.5020   61.6340   33.9710 C   0  0  2  0  0  0  0  0  0  0  0  0
   23.1540   61.9480   34.3910 O   0  0  0  0  0  0  0  0  0  0  0  0
   21.0490   62.8810   33.9550 C   0  0  0  0  0  0  0  0  0  0  0  0
   19.0710   61.5120   33.2020 C   0  0  0  0  0  0  0  0  0  0  0  0
   18.5230   60.4120   32.5530 C   0  0  0  0  0  0  0  0  0  0  0  0
   17.1510   60.3550   32.3020 C   0  0  0  0  0  0  0  0  0  0  0  0
   16.3190   61.3950   32.7160 C   0  0  0  0  0  0  0  0  0  0  0  0
   14.8560   61.2940   32.4220 C   0  0  0  0  0  0  0  0  0  0  0  0
   16.8680   62.4980   33.3520 C   0  0  0  0  0  0  0  0  0  0  0  0
   18.2310   62.5620   33.6080 C   0  0  0  0  0  0  0  0  0  0  0  0
   25.3030   65.1110   32.7520 O   0  0  0  0  0  0  0  0  0  0  0  0
   26.2120   64.8230   32.5530 H   0  0  0  0  0  0  0  0  0  0  0  0
   22.4060   65.1000   32.6560 O   0  0  0  0  0  0  0  0  0  0  0  0
   22.5630   65.9340   33.1250 H   0  0  0  0  0  0  0  0  0  0  0  0
   26.4240   62.3970   32.7350 O   0  0  0  0  0  0  0  0  0  0  0  0
   26.0970   61.6760   32.1660 H   0  0  0  0  0  0  0  0  0  0  0  0
   25.1330   60.9750   35.1760 C   0  0  0  0  0  0  0  0  0  0  0  0
   26.1990   60.0920   34.7400 O   0  0  0  0  0  0  0  0  0  0  0  0
   26.0640   59.2370   35.1830 H   0  0  0  0  0  0  0  0  0  0  0  0
  1 12  1  6  0  0  0
  1 11  1  0  0  0  0
  2  1  1  0  0  0  0
  3  2  1  0  0  0  0
  4  2  1  0  0  0  0
  4  5  1  0  0  0  0
  5 11  1  1  0  0  0
  5 10  1  0  0  0  0
  6  5  1  6  0  0  0
  7 19  1  1  0  0  0
  7  6  1  0  0  0  0
  7  8  1  0  0  0  0
  8 23  1  6  0  0  0
  8  9  1  0  0  0  0
  9 10  1  0  0  0  0
  9 25  1  1  0  0  0
 12 18  2  0  0  0  0
 13 12  1  0  0  0  0
 14 13  2  0  0  0  0
 14 15  1  0  0  0  0
 15 17  2  0  0  0  0
 16 15  1  0  0  0  0
 17 18  1  0  0  0  0
 20 19  1  0  0  0  0
 21 22  1  0  0  0  0
 21  6  1  0  0  0  0
 24 23  1  0  0  0  0
 26 25  1  0  0  0  0
 26 27  1  0  0  0  0
M  END
>  <minimizedAffinity>
-8.2766037

$$$$

 OpenBabel12271915223D

 27 29  0  0  1  0  0  0  0  0999 V2000
   21.6750   63.6260   32.9630 C   0  0  1  0  0  0  0  0  0  0  0  0
   21.4050   63.4130   31.5460 N   0  0  0  0  0  0  0  0  0  0  0  0
   22.0110   62.7310   30.9730 H   0  0  0  0  0  0  0  0  0  0  0  0
   19.9650   62.8680   31.5170 O   0  0  0  0  0  0  0  0  0  0  0  0
   19.3980   63.5220   32.7230 C   0  0  2  0  0  0  0  0  0  0  0  0
   18.0450   62.9500   33.0120 C   0  0  1  0  0  0  0  0  0  0  0  0
   17.1760   63.1360   31.7910 C   0  0  2  0  0  0  0  0  0  0  0  0
   17.0760   64.6160   31.4350 C   0  0  1  0  0  0  0  0  0  0  0  0
   18.4020   65.3500   31.4690 C   0  0  2  0  0  0  0  0  0  0  0  0
   19.2540   64.9610   32.5710 O   0  0  0  0  0  0  0  0  0  0  0  0
   20.4310   63.3160   33.7550 C   0  0  0  0  0  0  0  0  0  0  0  0
   22.8980   62.9010   33.4430 C   0  0  0  0  0  0  0  0  0  0  0  0
   22.7690   61.9100   34.4090 C   0  0  0  0  0  0  0  0  0  0  0  0
   23.8900   61.2030   34.8460 C   0  0  0  0  0  0  0  0  0  0  0  0
   25.1460   61.4760   34.3030 C   0  0  0  0  0  0  0  0  0  0  0  0
   26.3200   60.6970   34.8040 C   0  0  0  0  0  0  0  0  0  0  0  0
   25.2760   62.4730   33.3490 C   0  0  0  0  0  0  0  0  0  0  0  0
   24.1650   63.1790   32.9060 C   0  0  0  0  0  0  0  0  0  0  0  0
   15.8250   62.6620   32.0580 O   0  0  0  0  0  0  0  0  0  0  0  0
   15.2880   63.0300   31.3340 H   0  0  0  0  0  0  0  0  0  0  0  0
   18.1610   61.5430   33.3620 O   0  0  0  0  0  0  0  0  0  0  0  0
   17.4950   61.4190   34.0560 H   0  0  0  0  0  0  0  0  0  0  0  0
   16.5340   64.7180   30.0850 O   0  0  0  0  0  0  0  0  0  0  0  0
   17.2780   64.6390   29.4610 H   0  0  0  0  0  0  0  0  0  0  0  0
   18.1690   66.8290   31.6730 C   0  0  0  0  0  0  0  0  0  0  0  0
   16.8170   67.0420   32.1590 O   0  0  0  0  0  0  0  0  0  0  0  0
   16.4190   67.7380   31.6100 H   0  0  0  0  0  0  0  0  0  0  0  0
  1 12  1  1  0  0  0
  1 11  1  0  0  0  0
  2  1  1  0  0  0  0
  3  2  1  0  0  0  0
  4  2  1  0  0  0  0
  4  5  1  0  0  0  0
  5 11  1  1  0  0  0
  6  5  1  6  0  0  0
  6 21  1  0  0  0  0
  7 19  1  1  0  0  0
  7  6  1  0  0  0  0
  8 23  1  6  0  0  0
  8  9  1  0  0  0  0
  8  7  1  0  0  0  0
  9 25  1  1  0  0  0
  9 10  1  0  0  0  0
 10  5  1  0  0  0  0
 12 13  2  0  0  0  0
 13 14  1  0  0  0  0
 15 16  1  0  0  0  0
 15 14  2  0  0  0  0
 17 15  1  0  0  0  0
 18 17  2  0  0  0  0
 18 12  1  0  0  0  0
 20 19  1  0  0  0  0
 21 22  1  0  0  0  0
 24 23  1  0  0  0  0
 25 26  1  0  0  0  0
 27 26  1  0  0  0  0
M  END
>  <minimizedAffinity>
-8.12742805

$$$$

 OpenBabel12271915223D

 27 29  0  0  1  0  0  0  0  0999 V2000
   20.8390   64.2590   32.0660 C   0  0  1  0  0  0  0  0  0  0  0  0
   21.2660   64.8470   33.3300 N   0  0  0  0  0  0  0  0  0  0  0  0
   20.5940   65.4700   33.8960 H   0  0  0  0  0  0  0  0  0  0  0  0
   21.6040   63.6320   34.2130 O   0  0  0  0  0  0  0  0  0  0  0  0
   22.0320   62.6530   33.1830 C   0  0  2  0  0  0  0  0  0  0  0  0
   22.2010   61.3060   33.8150 C   0  0  1  0  0  0  0  0  0  0  0  0
   23.1960   61.4280   34.9450 C   0  0  2  0  0  0  0  0  0  0  0  0
   24.5280   61.9530   34.4200 C   0  0  1  0  0  0  0  0  0  0  0  0
   24.3980   63.1300   33.4710 C   0  0  2  0  0  0  0  0  0  0  0  0
   23.2910   63.0130   32.5490 O   0  0  0  0  0  0  0  0  0  0  0  0
   20.9960   62.7620   32.1400 C   0  0  0  0  0  0  0  0  0  0  0  0
   19.4710   64.7070   31.6430 C   0  0  0  0  0  0  0  0  0  0  0  0
   18.5090   63.7550   31.3280 C   0  0  0  0  0  0  0  0  0  0  0  0
   17.2210   64.1510   30.9630 C   0  0  0  0  0  0  0  0  0  0  0  0
   16.8870   65.5050   30.9280 C   0  0  0  0  0  0  0  0  0  0  0  0
   15.4970   65.8840   30.5260 C   0  0  0  0  0  0  0  0  0  0  0  0
   17.8520   66.4540   31.2300 C   0  0  0  0  0  0  0  0  0  0  0  0
   19.1340   66.0690   31.5980 C   0  0  0  0  0  0  0  0  0  0  0  0
   23.4470   60.1220   35.5370 O   0  0  0  0  0  0  0  0  0  0  0  0
   24.2520   60.2450   36.0720 H   0  0  0  0  0  0  0  0  0  0  0  0
   20.9200   60.8150   34.2970 O   0  0  0  0  0  0  0  0  0  0  0  0
   20.9510   59.8630   34.1150 H   0  0  0  0  0  0  0  0  0  0  0  0
   25.3260   62.3790   35.5650 O   0  0  0  0  0  0  0  0  0  0  0  0
   25.0720   63.2950   35.7790 H   0  0  0  0  0  0  0  0  0  0  0  0
   25.6210   63.2190   32.5890 C   0  0  0  0  0  0  0  0  0  0  0  0
   26.4310   62.0270   32.7650 O   0  0  0  0  0  0  0  0  0  0  0  0
   27.3460   62.3200   32.9160 H   0  0  0  0  0  0  0  0  0  0  0  0
  1 12  1  1  0  0  0
  1 11  1  0  0  0  0
  1  2  1  0  0  0  0
  2  3  1  0  0  0  0
  2  4  1  0  0  0  0
  5 11  1  6  0  0  0
  5  4  1  0  0  0  0
  6  5  1  1  0  0  0
  6 21  1  0  0  0  0
  6  7  1  0  0  0  0
  7 19  1  6  0  0  0
  8  7  1  0  0  0  0
  8 23  1  1  0  0  0
  9 25  1  6  0  0  0
  9  8  1  0  0  0  0
 10  5  1  0  0  0  0
 10  9  1  0  0  0  0
 13 12  2  0  0  0  0
 14 13  1  0  0  0  0
 15 14  2  0  0  0  0
 15 17  1  0  0  0  0
 16 15  1  0  0  0  0
 17 18  2  0  0  0  0
 18 12  1  0  0  0  0
 19 20  1  0  0  0  0
 22 21  1  0  0  0  0
 23 24  1  0  0  0  0
 25 26  1  0  0  0  0
 26 27  1  0  0  0  0
M  END
>  <minimizedAffinity>
-8.01192665

$$$$

 OpenBabel12271915223D

 27 29  0  0  1  0  0  0  0  0999 V2000
   20.0160   63.3140   32.3360 C   0  0  1  0  0  0  0  0  0  0  0  0
   19.4230   63.0890   33.6490 N   0  0  0  0  0  0  0  0  0  0  0  0
   19.5020   63.8390   34.4180 H   0  0  0  0  0  0  0  0  0  0  0  0
   17.9230   62.9030   33.3540 O   0  0  0  0  0  0  0  0  0  0  0  0
   17.9790   62.3230   31.9890 C   0  0  2  0  0  0  0  0  0  0  0  0
   16.5980   62.2640   31.4130 C   0  0  1  0  0  0  0  0  0  0  0  0
   15.7240   61.4610   32.3470 C   0  0  2  0  0  0  0  0  0  0  0  0
   16.2970   60.0590   32.5300 C   0  0  1  0  0  0  0  0  0  0  0  0
   17.7940   60.0300   32.7730 C   0  0  2  0  0  0  0  0  0  0  0  0
   18.5320   60.9780   31.9690 O   0  0  0  0  0  0  0  0  0  0  0  0
   18.9490   63.1790   31.2810 C   0  0  0  0  0  0  0  0  0  0  0  0
   20.7930   64.5950   32.2550 C   0  0  0  0  0  0  0  0  0  0  0  0
   22.1800   64.5590   32.3420 C   0  0  0  0  0  0  0  0  0  0  0  0
   22.9220   65.7360   32.2370 C   0  0  0  0  0  0  0  0  0  0  0  0
   22.2760   66.9550   32.0270 C   0  0  0  0  0  0  0  0  0  0  0  0
   23.1110   68.1930   31.9250 C   0  0  0  0  0  0  0  0  0  0  0  0
   20.8920   66.9920   31.9530 C   0  0  0  0  0  0  0  0  0  0  0  0
   20.1470   65.8250   32.0530 C   0  0  0  0  0  0  0  0  0  0  0  0
   14.3890   61.3140   31.7850 O   0  0  0  0  0  0  0  0  0  0  0  0
   13.9780   60.6040   32.3090 H   0  0  0  0  0  0  0  0  0  0  0  0
   16.0740   63.6090   31.2340 O   0  0  0  0  0  0  0  0  0  0  0  0
   15.5720   63.5550   30.4050 H   0  0  0  0  0  0  0  0  0  0  0  0
   15.6370   59.4510   33.6800 O   0  0  0  0  0  0  0  0  0  0  0  0
   16.1190   59.7300   34.4800 H   0  0  0  0  0  0  0  0  0  0  0  0
   18.3540   58.6820   32.3840 C   0  0  0  0  0  0  0  0  0  0  0  0
   19.7320   58.5840   32.8310 O   0  0  0  0  0  0  0  0  0  0  0  0
   20.2580   58.2700   32.0760 H   0  0  0  0  0  0  0  0  0  0  0  0
  1 12  1  1  0  0  0
  1  2  1  0  0  0  0
  2  3  1  0  0  0  0
  4  2  1  0  0  0  0
  5 11  1  6  0  0  0
  5  4  1  0  0  0  0
  6  5  1  1  0  0  0
  6  7  1  0  0  0  0
  7 19  1  6  0  0  0
  7  8  1  0  0  0  0
  8  9  1  0  0  0  0
  8 23  1  1  0  0  0
  9 25  1  6  0  0  0
 10  5  1  0  0  0  0
 10  9  1  0  0  0  0
 11  1  1  0  0  0  0
 12 13  1  0  0  0  0
 14 13  2  0  0  0  0
 15 14  1  0  0  0  0
 16 15  1  0  0  0  0
 17 15  2  0  0  0  0
 17 18  1  0  0  0  0
 18 12  2  0  0  0  0
 19 20  1  0  0  0  0
 21  6  1  0  0  0  0
 22 21  1  0  0  0  0
 23 24  1  0  0  0  0
 25 26  1  0  0  0  0
 27 26  1  0  0  0  0
M  END
>  <minimizedAffinity>
-7.94840336

$$$$

 OpenBabel12271915223D

 27 29  0  0  1  0  0  0  0  0999 V2000
   20.6140   61.8060   32.7850 C   0  0  1  0  0  0  0  0  0  0  0  0
   19.9000   61.7330   34.0550 N   0  0  0  0  0  0  0  0  0  0  0  0
   20.1720   62.3810   34.8710 H   0  0  0  0  0  0  0  0  0  0  0  0
   18.4430   62.0630   33.6840 O   0  0  0  0  0  0  0  0  0  0  0  0
   18.3900   61.5570   32.2900 C   0  0  2  0  0  0  0  0  0  0  0  0
   17.1030   61.9810   31.6530 C   0  0  1  0  0  0  0  0  0  0  0  0
   15.9600   61.4700   32.4970 C   0  0  2  0  0  0  0  0  0  0  0  0
   16.0310   59.9510   32.6190 C   0  0  1  0  0  0  0  0  0  0  0  0
   17.4190   59.4210   32.9250 C   0  0  2  0  0  0  0  0  0  0  0  0
   18.4740   60.1070   32.2120 O   0  0  0  0  0  0  0  0  0  0  0  0
   19.6270   62.0770   31.6790 C   0  0  0  0  0  0  0  0  0  0  0  0
   21.7700   62.7630   32.8160 C   0  0  0  0  0  0  0  0  0  0  0  0
   23.0450   62.2840   33.0890 C   0  0  0  0  0  0  0  0  0  0  0  0
   24.1370   63.1530   33.0910 C   0  0  0  0  0  0  0  0  0  0  0  0
   23.9570   64.5050   32.8020 C   0  0  0  0  0  0  0  0  0  0  0  0
   25.1550   65.4010   32.8200 C   0  0  0  0  0  0  0  0  0  0  0  0
   22.6820   64.9850   32.5430 C   0  0  0  0  0  0  0  0  0  0  0  0
   21.5910   64.1270   32.5350 C   0  0  0  0  0  0  0  0  0  0  0  0
   14.6870   61.7950   31.8690 O   0  0  0  0  0  0  0  0  0  0  0  0
   14.0350   61.2380   32.3310 H   0  0  0  0  0  0  0  0  0  0  0  0
   17.0580   63.4290   31.5330 O   0  0  0  0  0  0  0  0  0  0  0  0
   16.6180   63.5800   30.6820 H   0  0  0  0  0  0  0  0  0  0  0  0
   15.1410   59.5450   33.7000 O   0  0  0  0  0  0  0  0  0  0  0  0
   15.6380   59.6150   34.5360 H   0  0  0  0  0  0  0  0  0  0  0  0
   17.5310   57.9820   32.4790 C   0  0  0  0  0  0  0  0  0  0  0  0
   16.2050   57.4510   32.2210 O   0  0  0  0  0  0  0  0  0  0  0  0
   16.1400   56.6000   32.6860 H   0  0  0  0  0  0  0  0  0  0  0  0
  1 12  1  1  0  0  0
  1  2  1  0  0  0  0
  2  3  1  0  0  0  0
  4  2  1  0  0  0  0
  5 11  1  6  0  0  0
  5  4  1  0  0  0  0
  6  5  1  1  0  0  0
  6  7  1  0  0  0  0
  7 19  1  6  0  0  0
  7  8  1  0  0  0  0
  8  9  1  0  0  0  0
  8 23  1  1  0  0  0
  9 25  1  6  0  0  0
 10  5  1  0  0  0  0
 10  9  1  0  0  0  0
 11  1  1  0  0  0  0
 12 13  2  0  0  0  0
 13 14  1  0  0  0  0
 15 16  1  0  0  0  0
 15 14  2  0  0  0  0
 17 15  1  0  0  0  0
 18 17  2  0  0  0  0
 18 12  1  0  0  0  0
 19 20  1  0  0  0  0
 21  6  1  0  0  0  0
 22 21  1  0  0  0  0
 23 24  1  0  0  0  0
 26 25  1  0  0  0  0
 26 27  1  0  0  0  0
M  END
>  <minimizedAffinity>
-7.83252001

$$$$

 OpenBabel12271915223D

 27 29  0  0  1  0  0  0  0  0999 V2000
   20.4150   60.6040   32.9040 C   0  0  1  0  0  0  0  0  0  0  0  0
   21.0040   60.8250   31.5890 N   0  0  0  0  0  0  0  0  0  0  0  0
   20.4630   60.5550   30.6980 H   0  0  0  0  0  0  0  0  0  0  0  0
   21.2330   62.3470   31.5320 O   0  0  0  0  0  0  0  0  0  0  0  0
   21.4520   62.6470   32.9690 C   0  0  2  0  0  0  0  0  0  0  0  0
   21.4780   64.1310   33.1710 C   0  0  1  0  0  0  0  0  0  0  0  0
   22.5550   64.7150   32.2880 C   0  0  2  0  0  0  0  0  0  0  0  0
   23.9070   64.0960   32.6250 C   0  0  1  0  0  0  0  0  0  0  0  0
   23.8740   62.5880   32.7860 C   0  0  2  0  0  0  0  0  0  0  0  0
   22.7010   62.1030   33.4770 O   0  0  0  0  0  0  0  0  0  0  0  0
   20.3710   61.9120   33.6520 C   0  0  0  0  0  0  0  0  0  0  0  0
   19.0950   59.8940   32.8450 C   0  0  0  0  0  0  0  0  0  0  0  0
   17.9380   60.6220   32.5980 C   0  0  0  0  0  0  0  0  0  0  0  0
   16.7050   59.9750   32.5080 C   0  0  0  0  0  0  0  0  0  0  0  0
   16.6280   58.5890   32.6480 C   0  0  0  0  0  0  0  0  0  0  0  0
   15.2860   57.9380   32.5490 C   0  0  0  0  0  0  0  0  0  0  0  0
   17.7820   57.8640   32.9070 C   0  0  0  0  0  0  0  0  0  0  0  0
   19.0130   58.5000   32.9950 C   0  0  0  0  0  0  0  0  0  0  0  0
   22.6660   66.1500   32.5120 O   0  0  0  0  0  0  0  0  0  0  0  0
   23.5150   66.3970   32.1030 H   0  0  0  0  0  0  0  0  0  0  0  0
   20.1780   64.7020   32.8570 O   0  0  0  0  0  0  0  0  0  0  0  0
   20.0660   65.4040   33.5160 H   0  0  0  0  0  0  0  0  0  0  0  0
   24.8320   64.4190   31.5440 O   0  0  0  0  0  0  0  0  0  0  0  0
   24.7210   63.7450   30.8490 H   0  0  0  0  0  0  0  0  0  0  0  0
   25.0350   62.1340   33.6400 C   0  0  0  0  0  0  0  0  0  0  0  0
   26.2490   62.1330   32.8430 O   0  0  0  0  0  0  0  0  0  0  0  0
   26.6830   61.2740   32.9810 H   0  0  0  0  0  0  0  0  0  0  0  0
  1 12  1  6  0  0  0
  1 11  1  0  0  0  0
  2  1  1  0  0  0  0
  3  2  1  0  0  0  0
  4  2  1  0  0  0  0
  4  5  1  0  0  0  0
  5 10  1  0  0  0  0
  5 11  1  1  0  0  0
  6  5  1  6  0  0  0
  7 19  1  1  0  0  0
  7  8  1  0  0  0  0
  7  6  1  0  0  0  0
  8 23  1  6  0  0  0
  8  9  1  0  0  0  0
  9 10  1  0  0  0  0
  9 25  1  1  0  0  0
 12 18  2  0  0  0  0
 13 12  1  0  0  0  0
 14 13  2  0  0  0  0
 14 15  1  0  0  0  0
 15 17  2  0  0  0  0
 16 15  1  0  0  0  0
 17 18  1  0  0  0  0
 20 19  1  0  0  0  0
 21  6  1  0  0  0  0
 21 22  1  0  0  0  0
 24 23  1  0  0  0  0
 26 27  1  0  0  0  0
 26 25  1  0  0  0  0
M  END
>  <minimizedAffinity>
-7.82978153

$$$$

 OpenBabel12271915223D

 27 29  0  0  1  0  0  0  0  0999 V2000
   20.0430   63.8610   32.3680 C   0  0  1  0  0  0  0  0  0  0  0  0
   20.7310   62.9600   31.4510 N   0  0  0  0  0  0  0  0  0  0  0  0
   20.3920   62.8550   30.4340 H   0  0  0  0  0  0  0  0  0  0  0  0
   22.1670   63.5100   31.3930 O   0  0  0  0  0  0  0  0  0  0  0  0
   22.2900   64.1080   32.7460 C   0  0  2  0  0  0  0  0  0  0  0  0
   23.5550   64.9040   32.8280 C   0  0  1  0  0  0  0  0  0  0  0  0
   24.7140   63.9960   32.4900 C   0  0  2  0  0  0  0  0  0  0  0  0
   24.7540   62.8110   33.4490 C   0  0  1  0  0  0  0  0  0  0  0  0
   23.4030   62.1640   33.6870 C   0  0  2  0  0  0  0  0  0  0  0  0
   22.3170   63.1100   33.8040 O   0  0  0  0  0  0  0  0  0  0  0  0
   21.0310   64.8580   32.9160 C   0  0  0  0  0  0  0  0  0  0  0  0
   18.8180   64.4870   31.7680 C   0  0  0  0  0  0  0  0  0  0  0  0
   18.7950   65.8570   31.5380 C   0  0  0  0  0  0  0  0  0  0  0  0
   17.6770   66.4520   30.9520 C   0  0  0  0  0  0  0  0  0  0  0  0
   16.5820   65.6730   30.5780 C   0  0  0  0  0  0  0  0  0  0  0  0
   15.4040   66.3540   29.9570 C   0  0  0  0  0  0  0  0  0  0  0  0
   16.6010   64.3070   30.8190 C   0  0  0  0  0  0  0  0  0  0  0  0
   17.7100   63.7070   31.3990 C   0  0  0  0  0  0  0  0  0  0  0  0
   25.9730   64.7140   32.6340 O   0  0  0  0  0  0  0  0  0  0  0  0
   26.6540   64.0170   32.6380 H   0  0  0  0  0  0  0  0  0  0  0  0
   23.4940   66.0360   31.9170 O   0  0  0  0  0  0  0  0  0  0  0  0
   23.9410   66.7480   32.4000 H   0  0  0  0  0  0  0  0  0  0  0  0
   25.6480   61.8060   32.8850 O   0  0  0  0  0  0  0  0  0  0  0  0
   25.1280   61.2610   32.2670 H   0  0  0  0  0  0  0  0  0  0  0  0
   23.4100   61.4260   35.0060 C   0  0  0  0  0  0  0  0  0  0  0  0
   24.5920   60.5860   35.0840 O   0  0  0  0  0  0  0  0  0  0  0  0
   24.2980   59.7000   35.3570 H   0  0  0  0  0  0  0  0  0  0  0  0
  1 12  1  6  0  0  0
  1 11  1  0  0  0  0
  2  1  1  0  0  0  0
  3  2  1  0  0  0  0
  4  2  1  0  0  0  0
  4  5  1  0  0  0  0
  5 11  1  1  0  0  0
  5 10  1  0  0  0  0
  6  5  1  6  0  0  0
  7 19  1  1  0  0  0
  7  6  1  0  0  0  0
  7  8  1  0  0  0  0
  8 23  1  6  0  0  0
  8  9  1  0  0  0  0
  9 10  1  0  0  0  0
  9 25  1  1  0  0  0
 13 12  1  0  0  0  0
 14 13  2  0  0  0  0
 15 17  2  0  0  0  0
 15 14  1  0  0  0  0
 16 15  1  0  0  0  0
 17 18  1  0  0  0  0
 18 12  2  0  0  0  0
 19 20  1  0  0  0  0
 21 22  1  0  0  0  0
 21  6  1  0  0  0  0
 24 23  1  0  0  0  0
 25 26  1  0  0  0  0
 26 27  1  0  0  0  0
M  END
>  <minimizedAffinity>
-7.76449633

$$$$

 OpenBabel12271915223D

 27 29  0  0  1  0  0  0  0  0999 V2000
   19.8350   63.2190   32.2960 C   0  0  1  0  0  0  0  0  0  0  0  0
   19.9790   64.1760   33.3870 N   0  0  0  0  0  0  0  0  0  0  0  0
   19.1740   64.3310   34.0860 H   0  0  0  0  0  0  0  0  0  0  0  0
   21.1800   63.6460   34.1930 O   0  0  0  0  0  0  0  0  0  0  0  0
   21.9600   62.9790   33.1210 C   0  0  2  0  0  0  0  0  0  0  0  0
   23.0790   62.1950   33.7320 C   0  0  1  0  0  0  0  0  0  0  0  0
   23.9230   63.1320   34.5620 C   0  0  2  0  0  0  0  0  0  0  0  0
   24.4630   64.2650   33.6950 C   0  0  1  0  0  0  0  0  0  0  0  0
   23.4290   64.8830   32.7730 C   0  0  2  0  0  0  0  0  0  0  0  0
   22.5350   63.9190   32.1720 O   0  0  0  0  0  0  0  0  0  0  0  0
   20.9470   62.2070   32.3770 C   0  0  0  0  0  0  0  0  0  0  0  0
   18.4640   62.6120   32.2260 C   0  0  0  0  0  0  0  0  0  0  0  0
   18.3220   61.2340   32.3330 C   0  0  0  0  0  0  0  0  0  0  0  0
   17.0530   60.6530   32.3010 C   0  0  0  0  0  0  0  0  0  0  0  0
   15.9180   61.4550   32.1780 C   0  0  0  0  0  0  0  0  0  0  0  0
   14.5790   60.7900   32.1440 C   0  0  0  0  0  0  0  0  0  0  0  0
   16.0620   62.8290   32.0580 C   0  0  0  0  0  0  0  0  0  0  0  0
   17.3200   63.4150   32.0930 C   0  0  0  0  0  0  0  0  0  0  0  0
   25.0700   62.4230   35.1130 O   0  0  0  0  0  0  0  0  0  0  0  0
   25.6700   63.1260   35.4170 H   0  0  0  0  0  0  0  0  0  0  0  0
   22.5470   61.1120   34.5440 O   0  0  0  0  0  0  0  0  0  0  0  0
   23.1640   60.3800   34.3910 H   0  0  0  0  0  0  0  0  0  0  0  0
   24.9650   65.3090   34.5800 O   0  0  0  0  0  0  0  0  0  0  0  0
   24.2130   65.8800   34.8220 H   0  0  0  0  0  0  0  0  0  0  0  0
   24.1140   65.5500   31.6030 C   0  0  0  0  0  0  0  0  0  0  0  0
   24.4900   66.9030   31.9700 O   0  0  0  0  0  0  0  0  0  0  0  0
   24.1810   67.4910   31.2600 H   0  0  0  0  0  0  0  0  0  0  0  0
  1 12  1  1  0  0  0
  1 11  1  0  0  0  0
  1  2  1  0  0  0  0
  2  3  1  0  0  0  0
  2  4  1  0  0  0  0
  5 11  1  6  0  0  0
  5  4  1  0  0  0  0
  6  5  1  1  0  0  0
  6 21  1  0  0  0  0
  6  7  1  0  0  0  0
  7 19  1  6  0  0  0
  8  7  1  0  0  0  0
  8 23  1  1  0  0  0
  9 25  1  6  0  0  0
  9  8  1  0  0  0  0
 10  9  1  0  0  0  0
 10  5  1  0  0  0  0
 12 13  2  0  0  0  0
 14 13  1  0  0  0  0
 15 14  2  0  0  0  0
 16 15  1  0  0  0  0
 17 18  2  0  0  0  0
 17 15  1  0  0  0  0
 18 12  1  0  0  0  0
 19 20  1  0  0  0  0
 22 21  1  0  0  0  0
 23 24  1  0  0  0  0
 25 26  1  0  0  0  0
 27 26  1  0  0  0  0
M  END
>  <minimizedAffinity>
-7.68169737

$$$$
