
 OpenBabel12271915113D

 25 29  0  0  1  0  0  0  0  0999 V2000
   21.6440   62.5410   32.4800 C   0  0  1  0  0  0  0  0  0  0  0  0
   22.5900   63.8210   32.0660 C   0  0  1  0  0  0  0  0  0  0  0  0
   21.8710   65.2070   32.0450 C   0  0  0  0  0  0  0  0  0  0  0  0
   20.4990   65.3090   32.2440 C   0  0  0  0  0  0  0  0  0  0  0  0
   19.8650   66.5510   32.1470 C   0  0  0  0  0  0  0  0  0  0  0  0
   18.5410   66.7730   32.3180 O   0  0  0  0  0  0  0  0  0  0  0  0
   18.5160   68.1580   31.7690 C   0  0  0  0  0  0  0  0  0  0  0  0
   19.8070   68.8340   31.8350 O   0  0  0  0  0  0  0  0  0  0  0  0
   20.6300   67.6750   31.8840 C   0  0  0  0  0  0  0  0  0  0  0  0
   21.9480   67.6610   31.7100 C   0  0  0  0  0  0  0  0  0  0  0  0
   22.5980   66.4300   31.7530 C   0  0  0  0  0  0  0  0  0  0  0  0
   24.0750   66.4000   31.6360 C   0  0  0  0  0  0  0  0  0  0  0  0
   24.6510   66.1150   33.0170 C   0  0  0  0  0  0  0  0  0  0  0  0
   24.8000   64.6100   33.2970 N   0  0  2  0  0  0  0  0  0  0  0  0
   25.0250   64.6090   34.2620 H   0  0  0  0  0  0  0  0  0  0  0  0
   25.9880   64.0270   32.6180 C   0  0  0  0  0  0  0  0  0  0  0  0
   25.8950   62.6340   33.0620 C   0  0  0  0  0  0  0  0  0  0  0  0
   24.4450   62.3460   32.8070 C   0  0  0  0  0  0  0  0  0  0  0  0
   23.6660   63.6330   33.1280 C   0  0  2  0  0  0  0  0  0  0  0  0
   22.7830   63.3990   34.3550 C   0  0  0  0  0  0  0  0  0  0  0  0
   21.6640   62.7600   33.9750 C   0  0  2  0  0  0  0  0  0  0  0  0
   20.4380   62.4320   31.7940 O   0  0  0  0  0  0  0  0  0  0  0  0
   20.3510   61.5200   31.5150 H   0  0  0  0  0  0  0  0  0  0  0  0
   20.7320   62.3790   34.8950 O   0  0  0  0  0  0  0  0  0  0  0  0
   19.6030   63.2430   35.1900 C   0  0  0  0  0  0  0  0  0  0  0  0
  1 22  1  6  0  0  0
  1 21  1  0  0  0  0
  2  1  1  0  0  0  0
  2 19  1  1  0  0  0
  3  2  1  0  0  0  0
  3  4  2  0  0  0  0
  5  4  1  0  0  0  0
  5  6  1  0  0  0  0
  7  8  1  0  0  0  0
  7  6  1  0  0  0  0
  8  9  1  0  0  0  0
  9  5  2  0  0  0  0
 10 11  2  0  0  0  0
 10  9  1  0  0  0  0
 11  3  1  0  0  0  0
 12 11  1  0  0  0  0
 12 13  1  0  0  0  0
 13 14  1  0  0  0  0
 14 19  1  6  0  0  0
 14 15  1  0  0  0  0
 16 17  1  0  0  0  0
 16 14  1  0  0  0  0
 18 17  1  0  0  0  0
 19 18  1  6  0  0  0
 19 20  1  0  0  0  0
 21 20  1  0  0  0  0
 21 24  1  1  0  0  0
 23 22  1  0  0  0  0
 24 25  1  0  0  0  0
M  END
>  <minimizedAffinity>
-8.71505356

$$$$

 OpenBabel12271915113D

 25 29  0  0  1  0  0  0  0  0999 V2000
   24.8840   64.3930   34.1220 C   0  0  1  0  0  0  0  0  0  0  0  0
   23.3530   63.8670   34.4070 C   0  0  1  0  0  0  0  0  0  0  0  0
   22.2380   64.5580   33.5600 C   0  0  0  0  0  0  0  0  0  0  0  0
   22.5300   65.6270   32.7200 C   0  0  0  0  0  0  0  0  0  0  0  0
   21.5050   66.2790   32.0280 C   0  0  0  0  0  0  0  0  0  0  0  0
   21.6670   67.3270   31.1880 O   0  0  0  0  0  0  0  0  0  0  0  0
   20.2290   67.7040   31.0880 C   0  0  0  0  0  0  0  0  0  0  0  0
   19.3180   66.6040   31.3810 O   0  0  0  0  0  0  0  0  0  0  0  0
   20.2060   65.8210   32.1680 C   0  0  0  0  0  0  0  0  0  0  0  0
   19.8520   64.7890   32.9290 C   0  0  0  0  0  0  0  0  0  0  0  0
   20.8470   64.1520   33.6670 C   0  0  0  0  0  0  0  0  0  0  0  0
   20.4880   62.9550   34.4630 C   0  0  0  0  0  0  0  0  0  0  0  0
   21.0300   61.7290   33.7390 C   0  0  0  0  0  0  0  0  0  0  0  0
   22.4670   61.3820   34.1590 N   0  0  2  0  0  0  0  0  0  0  0  0
   22.7050   60.6850   33.4940 H   0  0  0  0  0  0  0  0  0  0  0  0
   22.5180   60.6970   35.4780 C   0  0  0  0  0  0  0  0  0  0  0  0
   23.9610   60.4750   35.6110 C   0  0  0  0  0  0  0  0  0  0  0  0
   24.4960   61.8290   35.2460 C   0  0  0  0  0  0  0  0  0  0  0  0
   23.5890   62.3870   34.1350 C   0  0  2  0  0  0  0  0  0  0  0  0
   24.3850   62.4860   32.8320 C   0  0  0  0  0  0  0  0  0  0  0  0
   25.1280   63.6050   32.8550 C   0  0  2  0  0  0  0  0  0  0  0  0
   25.0660   65.7730   34.1470 O   0  0  0  0  0  0  0  0  0  0  0  0
   25.8450   65.9470   34.6750 H   0  0  0  0  0  0  0  0  0  0  0  0
   25.9780   63.8990   31.8300 O   0  0  0  0  0  0  0  0  0  0  0  0
   26.9550   62.9210   31.3890 C   0  0  0  0  0  0  0  0  0  0  0  0
  1 22  1  6  0  0  0
  1  2  1  0  0  0  0
  2 19  1  6  0  0  0
  3 11  1  0  0  0  0
  3  2  1  0  0  0  0
  4  3  2  0  0  0  0
  5  9  2  0  0  0  0
  5  4  1  0  0  0  0
  6  5  1  0  0  0  0
  7  6  1  0  0  0  0
  7  8  1  0  0  0  0
  8  9  1  0  0  0  0
  9 10  1  0  0  0  0
 10 11  2  0  0  0  0
 11 12  1  0  0  0  0
 13 14  1  0  0  0  0
 13 12  1  0  0  0  0
 14 19  1  6  0  0  0
 14 16  1  0  0  0  0
 15 14  1  0  0  0  0
 16 17  1  0  0  0  0
 18 17  1  0  0  0  0
 19 20  1  6  0  0  0
 19 18  1  0  0  0  0
 20 21  1  0  0  0  0
 21 24  1  1  0  0  0
 21  1  1  0  0  0  0
 22 23  1  0  0  0  0
 25 24  1  0  0  0  0
M  END
>  <minimizedAffinity>
-7.62648821

$$$$

 OpenBabel12271915113D

 25 29  0  0  1  0  0  0  0  0999 V2000
   21.8450   62.0000   32.0160 C   0  0  1  0  0  0  0  0  0  0  0  0
   20.9200   63.2990   31.6160 C   0  0  1  0  0  0  0  0  0  0  0  0
   19.3820   63.1110   31.8090 C   0  0  0  0  0  0  0  0  0  0  0  0
   18.8470   61.8810   32.1760 C   0  0  0  0  0  0  0  0  0  0  0  0
   17.4620   61.7170   32.2710 C   0  0  0  0  0  0  0  0  0  0  0  0
   16.8280   60.5720   32.6150 O   0  0  0  0  0  0  0  0  0  0  0  0
   15.4590   60.9910   32.2040 C   0  0  0  0  0  0  0  0  0  0  0  0
   15.2750   62.4370   32.1820 O   0  0  0  0  0  0  0  0  0  0  0  0
   16.6400   62.8040   32.0260 C   0  0  0  0  0  0  0  0  0  0  0  0
   17.0770   64.0160   31.6980 C   0  0  0  0  0  0  0  0  0  0  0  0
   18.4500   64.1950   31.5500 C   0  0  0  0  0  0  0  0  0  0  0  0
   18.9640   65.5550   31.2580 C   0  0  0  0  0  0  0  0  0  0  0  0
   19.6020   66.1000   32.5300 C   0  0  0  0  0  0  0  0  0  0  0  0
   21.0910   65.7340   32.6480 N   0  0  2  0  0  0  0  0  0  0  0  0
   21.2920   66.0180   33.5770 H   0  0  0  0  0  0  0  0  0  0  0  0
   21.9490   66.5860   31.7840 C   0  0  0  0  0  0  0  0  0  0  0  0
   23.2740   66.0460   32.1030 C   0  0  0  0  0  0  0  0  0  0  0  0
   23.0180   64.5720   31.9940 C   0  0  0  0  0  0  0  0  0  0  0  0
   21.5950   64.3200   32.5230 C   0  0  2  0  0  0  0  0  0  0  0  0
   21.6720   63.5080   33.8170 C   0  0  0  0  0  0  0  0  0  0  0  0
   21.8400   62.2110   33.5130 C   0  0  2  0  0  0  0  0  0  0  0  0
   21.4510   60.7830   31.4690 O   0  0  0  0  0  0  0  0  0  0  0  0
   22.2350   60.3610   31.1180 H   0  0  0  0  0  0  0  0  0  0  0  0
   21.9960   61.2790   34.4950 O   0  0  0  0  0  0  0  0  0  0  0  0
   23.3050   61.0460   35.0790 C   0  0  0  0  0  0  0  0  0  0  0  0
  1 22  1  1  0  0  0
  1 21  1  0  0  0  0
  2  3  1  0  0  0  0
  2  1  1  0  0  0  0
  2 19  1  1  0  0  0
  3  4  2  0  0  0  0
  4  5  1  0  0  0  0
  5  6  1  0  0  0  0
  7  6  1  0  0  0  0
  8  7  1  0  0  0  0
  9  8  1  0  0  0  0
  9  5  2  0  0  0  0
 10  9  1  0  0  0  0
 11 10  2  0  0  0  0
 11  3  1  0  0  0  0
 12 11  1  0  0  0  0
 12 13  1  0  0  0  0
 13 14  1  0  0  0  0
 14 19  1  6  0  0  0
 14 15  1  0  0  0  0
 16 17  1  0  0  0  0
 16 14  1  0  0  0  0
 18 17  1  0  0  0  0
 19 18  1  6  0  0  0
 19 20  1  0  0  0  0
 21 20  1  0  0  0  0
 21 24  1  6  0  0  0
 23 22  1  0  0  0  0
 24 25  1  0  0  0  0
M  END
>  <minimizedAffinity>
-7.44683409

$$$$

 OpenBabel12271915113D

 25 29  0  0  1  0  0  0  0  0999 V2000
   19.8150   63.5990   33.9590 C   0  0  1  0  0  0  0  0  0  0  0  0
   21.1210   64.5720   33.7360 C   0  0  1  0  0  0  0  0  0  0  0  0
   22.5090   63.8660   33.8510 C   0  0  0  0  0  0  0  0  0  0  0  0
   22.6100   62.5350   34.2370 C   0  0  0  0  0  0  0  0  0  0  0  0
   23.8660   61.9440   34.4050 C   0  0  0  0  0  0  0  0  0  0  0  0
   24.0890   60.6630   34.7790 O   0  0  0  0  0  0  0  0  0  0  0  0
   25.5420   60.8080   35.0720 C   0  0  0  0  0  0  0  0  0  0  0  0
   26.1700   61.9180   34.3660 O   0  0  0  0  0  0  0  0  0  0  0  0
   25.0000   62.6970   34.1490 C   0  0  0  0  0  0  0  0  0  0  0  0
   24.9840   63.9650   33.7490 C   0  0  0  0  0  0  0  0  0  0  0  0
   23.7470   64.5920   33.6200 C   0  0  0  0  0  0  0  0  0  0  0  0
   23.7020   65.9810   33.1050 C   0  0  0  0  0  0  0  0  0  0  0  0
   23.1930   65.9340   31.6700 C   0  0  0  0  0  0  0  0  0  0  0  0
   21.6600   66.0210   31.5840 N   0  0  2  0  0  0  0  0  0  0  0  0
   21.5040   65.8180   30.6250 H   0  0  0  0  0  0  0  0  0  0  0  0
   21.1630   67.4090   31.7760 C   0  0  0  0  0  0  0  0  0  0  0  0
   19.7200   67.2020   31.6280 C   0  0  0  0  0  0  0  0  0  0  0  0
   19.5080   66.0080   32.5120 C   0  0  0  0  0  0  0  0  0  0  0  0
   20.7470   65.1090   32.3600 C   0  0  2  0  0  0  0  0  0  0  0  0
   20.3450   63.8030   31.6730 C   0  0  0  0  0  0  0  0  0  0  0  0
   19.7970   62.9780   32.5810 C   0  0  2  0  0  0  0  0  0  0  0  0
   19.8400   62.8000   35.0980 O   0  0  0  0  0  0  0  0  0  0  0  0
   18.9850   62.8810   35.5210 H   0  0  0  0  0  0  0  0  0  0  0  0
   19.3000   61.7640   32.2110 O   0  0  0  0  0  0  0  0  0  0  0  0
   17.8930   61.4620   32.4050 C   0  0  0  0  0  0  0  0  0  0  0  0
  1 22  1  1  0  0  0
  2 19  1  6  0  0  0
  2  3  1  0  0  0  0
  2  1  1  0  0  0  0
  3  4  2  0  0  0  0
  4  5  1  0  0  0  0
  5  6  1  0  0  0  0
  6  7  1  0  0  0  0
  8  7  1  0  0  0  0
  9  8  1  0  0  0  0
  9  5  2  0  0  0  0
 10  9  1  0  0  0  0
 11 10  2  0  0  0  0
 11  3  1  0  0  0  0
 12 11  1  0  0  0  0
 13 12  1  0  0  0  0
 14 13  1  0  0  0  0
 14 16  1  0  0  0  0
 14 19  1  1  0  0  0
 15 14  1  0  0  0  0
 17 16  1  0  0  0  0
 17 18  1  0  0  0  0
 19 20  1  6  0  0  0
 19 18  1  0  0  0  0
 20 21  1  0  0  0  0
 21 24  1  6  0  0  0
 21  1  1  0  0  0  0
 22 23  1  0  0  0  0
 24 25  1  0  0  0  0
M  END
>  <minimizedAffinity>
-7.43975735

$$$$

 OpenBabel12271915113D

 25 29  0  0  1  0  0  0  0  0999 V2000
   17.4480   62.6410   31.3230 C   0  0  1  0  0  0  0  0  0  0  0  0
   18.9600   63.2270   31.5940 C   0  0  1  0  0  0  0  0  0  0  0  0
   19.0590   64.7790   31.7420 C   0  0  0  0  0  0  0  0  0  0  0  0
   17.9540   65.5950   31.5320 C   0  0  0  0  0  0  0  0  0  0  0  0
   18.0830   66.9850   31.5960 C   0  0  0  0  0  0  0  0  0  0  0  0
   17.0830   67.8770   31.4080 O   0  0  0  0  0  0  0  0  0  0  0  0
   17.9400   69.0890   31.2880 C   0  0  0  0  0  0  0  0  0  0  0  0
   19.2410   68.9490   31.9320 O   0  0  0  0  0  0  0  0  0  0  0  0
   19.3190   67.5300   31.9050 C   0  0  0  0  0  0  0  0  0  0  0  0
   20.4140   66.8150   32.1460 C   0  0  0  0  0  0  0  0  0  0  0  0
   20.3240   65.4290   32.0400 C   0  0  0  0  0  0  0  0  0  0  0  0
   21.5120   64.6100   32.3770 C   0  0  0  0  0  0  0  0  0  0  0  0
   21.2650   63.9560   33.7310 C   0  0  0  0  0  0  0  0  0  0  0  0
   20.5590   62.5970   33.6110 N   0  0  2  0  0  0  0  0  0  0  0  0
   20.3400   62.4020   34.5580 H   0  0  0  0  0  0  0  0  0  0  0  0
   21.4890   61.5140   33.1940 C   0  0  0  0  0  0  0  0  0  0  0  0
   20.5780   60.3660   33.1800 C   0  0  0  0  0  0  0  0  0  0  0  0
   19.4120   60.9320   32.4240 C   0  0  0  0  0  0  0  0  0  0  0  0
   19.2800   62.4080   32.8370 C   0  0  2  0  0  0  0  0  0  0  0  0
   17.9780   62.6010   33.6180 C   0  0  0  0  0  0  0  0  0  0  0  0
   16.9570   62.7010   32.7520 C   0  0  2  0  0  0  0  0  0  0  0  0
   16.7330   63.2540   30.2990 O   0  0  0  0  0  0  0  0  0  0  0  0
   16.3490   62.5600   29.7650 H   0  0  0  0  0  0  0  0  0  0  0  0
   15.6740   62.8220   33.1970 O   0  0  0  0  0  0  0  0  0  0  0  0
   14.6830   61.8200   32.8460 C   0  0  0  0  0  0  0  0  0  0  0  0
  1 22  1  6  0  0  0
  1  2  1  0  0  0  0
  1 21  1  0  0  0  0
  2  3  1  0  0  0  0
  2 19  1  1  0  0  0
  3 11  2  0  0  0  0
  4  5  2  0  0  0  0
  4  3  1  0  0  0  0
  5  9  1  0  0  0  0
  6  5  1  0  0  0  0
  7  6  1  0  0  0  0
  7  8  1  0  0  0  0
  9  8  1  0  0  0  0
  9 10  2  0  0  0  0
 11 10  1  0  0  0  0
 11 12  1  0  0  0  0
 12 13  1  0  0  0  0
 14 19  1  6  0  0  0
 14 13  1  0  0  0  0
 14 15  1  0  0  0  0
 16 14  1  0  0  0  0
 17 16  1  0  0  0  0
 18 17  1  0  0  0  0
 19 18  1  6  0  0  0
 19 20  1  0  0  0  0
 21 24  1  1  0  0  0
 21 20  1  0  0  0  0
 23 22  1  0  0  0  0
 25 24  1  0  0  0  0
M  END
>  <minimizedAffinity>
-7.38048124

$$$$

 OpenBabel12271915113D

 25 29  0  0  1  0  0  0  0  0999 V2000
   19.0090   68.2100   30.7630 C   0  0  1  0  0  0  0  0  0  0  0  0
   18.2200   66.7710   30.6660 C   0  0  1  0  0  0  0  0  0  0  0  0
   18.8860   65.5890   31.4380 C   0  0  0  0  0  0  0  0  0  0  0  0
   20.1240   65.7370   32.0530 C   0  0  0  0  0  0  0  0  0  0  0  0
   20.7360   64.6440   32.6750 C   0  0  0  0  0  0  0  0  0  0  0  0
   21.9340   64.6660   33.3010 O   0  0  0  0  0  0  0  0  0  0  0  0
   22.1080   63.1920   33.4160 C   0  0  0  0  0  0  0  0  0  0  0  0
   20.8520   62.4530   33.3780 O   0  0  0  0  0  0  0  0  0  0  0  0
   20.0740   63.4270   32.6950 C   0  0  0  0  0  0  0  0  0  0  0  0
   18.8780   63.2150   32.1540 C   0  0  0  0  0  0  0  0  0  0  0  0
   18.2680   64.2750   31.4860 C   0  0  0  0  0  0  0  0  0  0  0  0
   16.9030   64.0820   30.9410 C   0  0  0  0  0  0  0  0  0  0  0  0
   15.9270   64.8280   31.8410 C   0  0  0  0  0  0  0  0  0  0  0  0
   15.7220   66.2890   31.4080 N   0  0  2  0  0  0  0  0  0  0  0  0
   15.2050   66.6520   32.1730 H   0  0  0  0  0  0  0  0  0  0  0  0
   14.8180   66.4060   30.2340 C   0  0  0  0  0  0  0  0  0  0  0  0
   14.7890   67.8610   30.0600 C   0  0  0  0  0  0  0  0  0  0  0  0
   16.2510   68.1900   30.1440 C   0  0  0  0  0  0  0  0  0  0  0  0
   16.8680   67.2410   31.1860 C   0  0  2  0  0  0  0  0  0  0  0  0
   17.3240   68.0510   32.4010 C   0  0  0  0  0  0  0  0  0  0  0  0
   18.5150   68.6100   32.1350 C   0  0  2  0  0  0  0  0  0  0  0  0
   20.3710   68.1760   30.4800 O   0  0  0  0  0  0  0  0  0  0  0  0
   20.5560   68.9020   29.8840 H   0  0  0  0  0  0  0  0  0  0  0  0
   19.1170   69.4350   33.0390 O   0  0  0  0  0  0  0  0  0  0  0  0
   18.8090   70.8530   33.0510 C   0  0  0  0  0  0  0  0  0  0  0  0
  1 22  1  1  0  0  0
  1 21  1  0  0  0  0
  2  1  1  0  0  0  0
  2 19  1  1  0  0  0
  2  3  1  0  0  0  0
  3 11  2  0  0  0  0
  3  4  1  0  0  0  0
  4  5  2  0  0  0  0
  5  9  1  0  0  0  0
  5  6  1  0  0  0  0
  6  7  1  0  0  0  0
  8  7  1  0  0  0  0
  9  8  1  0  0  0  0
 10  9  2  0  0  0  0
 11 10  1  0  0  0  0
 12 11  1  0  0  0  0
 12 13  1  0  0  0  0
 14 19  1  6  0  0  0
 14 13  1  0  0  0  0
 14 15  1  0  0  0  0
 16 14  1  0  0  0  0
 17 18  1  0  0  0  0
 17 16  1  0  0  0  0
 19 18  1  6  0  0  0
 19 20  1  0  0  0  0
 21 20  1  0  0  0  0
 21 24  1  6  0  0  0
 23 22  1  0  0  0  0
 24 25  1  0  0  0  0
M  END
>  <minimizedAffinity>
-7.21729136

$$$$

 OpenBabel12271915113D

 25 29  0  0  1  0  0  0  0  0999 V2000
   19.2890   62.1650   34.2670 C   0  0  1  0  0  0  0  0  0  0  0  0
   19.1010   63.6370   33.5600 C   0  0  1  0  0  0  0  0  0  0  0  0
   20.4210   64.3290   33.0930 C   0  0  0  0  0  0  0  0  0  0  0  0
   21.6640   63.7760   33.3790 C   0  0  0  0  0  0  0  0  0  0  0  0
   22.8340   64.4500   33.0160 C   0  0  0  0  0  0  0  0  0  0  0  0
   24.0940   64.0140   33.2420 O   0  0  0  0  0  0  0  0  0  0  0  0
   24.7890   65.2940   32.9310 C   0  0  0  0  0  0  0  0  0  0  0  0
   24.0230   66.1740   32.0550 O   0  0  0  0  0  0  0  0  0  0  0  0
   22.7310   65.6560   32.3420 C   0  0  0  0  0  0  0  0  0  0  0  0
   21.5800   66.2330   32.0090 C   0  0  0  0  0  0  0  0  0  0  0  0
   20.3990   65.6060   32.4010 C   0  0  0  0  0  0  0  0  0  0  0  0
   19.1060   66.1930   31.9770 C   0  0  0  0  0  0  0  0  0  0  0  0
   18.5350   65.3210   30.8660 C   0  0  0  0  0  0  0  0  0  0  0  0
   17.6590   64.1780   31.4030 N   0  0  2  0  0  0  0  0  0  0  0  0
   17.5140   63.6380   30.5840 H   0  0  0  0  0  0  0  0  0  0  0  0
   16.3080   64.6470   31.8080 C   0  0  0  0  0  0  0  0  0  0  0  0
   15.7050   63.3860   32.2460 C   0  0  0  0  0  0  0  0  0  0  0  0
   16.7950   62.8320   33.1160 C   0  0  0  0  0  0  0  0  0  0  0  0
   18.1330   63.2160   32.4620 C   0  0  2  0  0  0  0  0  0  0  0  0
   18.8370   61.9520   31.9650 C   0  0  0  0  0  0  0  0  0  0  0  0
   19.4570   61.3600   32.9990 C   0  0  2  0  0  0  0  0  0  0  0  0
   20.2370   62.0960   35.2840 O   0  0  0  0  0  0  0  0  0  0  0  0
   19.8360   61.6270   36.0150 H   0  0  0  0  0  0  0  0  0  0  0  0
   20.1130   60.1760   32.8340 O   0  0  0  0  0  0  0  0  0  0  0  0
   19.3880   58.9210   32.9160 C   0  0  0  0  0  0  0  0  0  0  0  0
  1 22  1  1  0  0  0
  2 19  1  6  0  0  0
  2  1  1  0  0  0  0
  3  4  1  0  0  0  0
  3  2  1  0  0  0  0
  5  6  1  0  0  0  0
  5  4  2  0  0  0  0
  7  6  1  0  0  0  0
  8  9  1  0  0  0  0
  8  7  1  0  0  0  0
  9  5  1  0  0  0  0
 10  9  2  0  0  0  0
 10 11  1  0  0  0  0
 11  3  2  0  0  0  0
 12 11  1  0  0  0  0
 13 14  1  0  0  0  0
 13 12  1  0  0  0  0
 14 16  1  0  0  0  0
 14 19  1  1  0  0  0
 15 14  1  0  0  0  0
 16 17  1  0  0  0  0
 17 18  1  0  0  0  0
 19 20  1  6  0  0  0
 19 18  1  0  0  0  0
 20 21  1  0  0  0  0
 21 24  1  1  0  0  0
 21  1  1  0  0  0  0
 22 23  1  0  0  0  0
 24 25  1  0  0  0  0
M  END
>  <minimizedAffinity>
-7.02316618

$$$$

 OpenBabel12271915113D

 25 29  0  0  1  0  0  0  0  0999 V2000
   21.8380   62.8110   32.2280 C   0  0  1  0  0  0  0  0  0  0  0  0
   20.2980   63.1050   31.7340 C   0  0  1  0  0  0  0  0  0  0  0  0
   19.2760   61.9580   32.0090 C   0  0  0  0  0  0  0  0  0  0  0  0
   19.6880   60.7340   32.5230 C   0  0  0  0  0  0  0  0  0  0  0  0
   18.7670   59.6950   32.6920 C   0  0  0  0  0  0  0  0  0  0  0  0
   19.0500   58.4650   33.1790 O   0  0  0  0  0  0  0  0  0  0  0  0
   17.7710   57.8130   32.7840 C   0  0  0  0  0  0  0  0  0  0  0  0
   16.6660   58.7520   32.6200 O   0  0  0  0  0  0  0  0  0  0  0  0
   17.4390   59.9190   32.3700 C   0  0  0  0  0  0  0  0  0  0  0  0
   16.9640   61.0690   31.9000 C   0  0  0  0  0  0  0  0  0  0  0  0
   17.8690   62.1040   31.6780 C   0  0  0  0  0  0  0  0  0  0  0  0
   17.3510   63.4170   31.2260 C   0  0  0  0  0  0  0  0  0  0  0  0
   17.4100   64.3780   32.4060 C   0  0  0  0  0  0  0  0  0  0  0  0
   18.7540   65.1180   32.5000 N   0  0  2  0  0  0  0  0  0  0  0  0
   18.6770   65.5590   33.3850 H   0  0  0  0  0  0  0  0  0  0  0  0
   18.8540   66.2290   31.5170 C   0  0  0  0  0  0  0  0  0  0  0  0
   20.1850   66.7520   31.8350 C   0  0  0  0  0  0  0  0  0  0  0  0
   20.9870   65.4850   31.8900 C   0  0  0  0  0  0  0  0  0  0  0  0
   20.0800   64.4030   32.5010 C   0  0  2  0  0  0  0  0  0  0  0  0
   20.6300   63.9930   33.8680 C   0  0  0  0  0  0  0  0  0  0  0  0
   21.6350   63.1200   33.6930 C   0  0  2  0  0  0  0  0  0  0  0  0
   22.3820   61.5950   31.8260 O   0  0  0  0  0  0  0  0  0  0  0  0
   23.2600   61.7730   31.4890 H   0  0  0  0  0  0  0  0  0  0  0  0
   22.3370   62.6420   34.7600 O   0  0  0  0  0  0  0  0  0  0  0  0
   23.7890   62.6680   34.7490 C   0  0  0  0  0  0  0  0  0  0  0  0
  1 22  1  1  0  0  0
  1 21  1  0  0  0  0
  2  3  1  0  0  0  0
  2  1  1  0  0  0  0
  2 19  1  1  0  0  0
  3  4  2  0  0  0  0
  4  5  1  0  0  0  0
  5  6  1  0  0  0  0
  7  6  1  0  0  0  0
  8  7  1  0  0  0  0
  9  8  1  0  0  0  0
  9  5  2  0  0  0  0
 10  9  1  0  0  0  0
 11 10  2  0  0  0  0
 11  3  1  0  0  0  0
 12 11  1  0  0  0  0
 12 13  1  0  0  0  0
 13 14  1  0  0  0  0
 14 19  1  6  0  0  0
 14 15  1  0  0  0  0
 16 17  1  0  0  0  0
 16 14  1  0  0  0  0
 17 18  1  0  0  0  0
 19 18  1  6  0  0  0
 19 20  1  0  0  0  0
 21 20  1  0  0  0  0
 21 24  1  6  0  0  0
 23 22  1  0  0  0  0
 25 24  1  0  0  0  0
M  END
>  <minimizedAffinity>
-6.97365332

$$$$

 OpenBabel12271915113D

 25 29  0  0  1  0  0  0  0  0999 V2000
   24.5040   63.7580   32.4480 C   0  0  1  0  0  0  0  0  0  0  0  0
   23.0820   64.3680   31.8920 C   0  0  1  0  0  0  0  0  0  0  0  0
   21.8250   63.4810   32.1550 C   0  0  0  0  0  0  0  0  0  0  0  0
   21.9420   62.2120   32.7110 C   0  0  0  0  0  0  0  0  0  0  0  0
   20.8100   61.4060   32.8690 C   0  0  0  0  0  0  0  0  0  0  0  0
   20.8010   60.1590   33.3940 O   0  0  0  0  0  0  0  0  0  0  0  0
   19.4220   59.7920   32.9670 C   0  0  0  0  0  0  0  0  0  0  0  0
   18.5560   60.9440   32.7420 O   0  0  0  0  0  0  0  0  0  0  0  0
   19.5740   61.9060   32.4940 C   0  0  0  0  0  0  0  0  0  0  0  0
   19.3790   63.1170   31.9820 C   0  0  0  0  0  0  0  0  0  0  0  0
   20.4950   63.9220   31.7690 C   0  0  0  0  0  0  0  0  0  0  0  0
   20.2930   65.3030   31.2690 C   0  0  0  0  0  0  0  0  0  0  0  0
   20.5260   66.2620   32.4300 C   0  0  0  0  0  0  0  0  0  0  0  0
   21.9960   66.6920   32.5560 N   0  0  2  0  0  0  0  0  0  0  0  0
   21.9910   67.1660   33.4270 H   0  0  0  0  0  0  0  0  0  0  0  0
   22.3690   67.7240   31.5530 C   0  0  0  0  0  0  0  0  0  0  0  0
   23.7720   67.9520   31.9080 C   0  0  0  0  0  0  0  0  0  0  0  0
   24.2730   66.5430   32.0200 C   0  0  0  0  0  0  0  0  0  0  0  0
   23.1320   65.7040   32.6210 C   0  0  2  0  0  0  0  0  0  0  0  0
   23.5350   65.2240   34.0170 C   0  0  0  0  0  0  0  0  0  0  0  0
   24.3290   64.1480   33.8980 C   0  0  2  0  0  0  0  0  0  0  0  0
   24.7800   62.4410   32.0940 O   0  0  0  0  0  0  0  0  0  0  0  0
   25.6850   62.4130   31.7860 H   0  0  0  0  0  0  0  0  0  0  0  0
   24.8760   63.5590   35.0000 O   0  0  0  0  0  0  0  0  0  0  0  0
   24.5690   62.1760   35.3170 C   0  0  0  0  0  0  0  0  0  0  0  0
  1 22  1  1  0  0  0
  1 21  1  0  0  0  0
  2  3  1  0  0  0  0
  2  1  1  0  0  0  0
  2 19  1  1  0  0  0
  3  4  2  0  0  0  0
  4  5  1  0  0  0  0
  5  6  1  0  0  0  0
  7  6  1  0  0  0  0
  8  7  1  0  0  0  0
  9  8  1  0  0  0  0
  9  5  2  0  0  0  0
 10  9  1  0  0  0  0
 11 10  2  0  0  0  0
 11  3  1  0  0  0  0
 12 11  1  0  0  0  0
 12 13  1  0  0  0  0
 13 14  1  0  0  0  0
 14 19  1  6  0  0  0
 14 15  1  0  0  0  0
 16 17  1  0  0  0  0
 16 14  1  0  0  0  0
 17 18  1  0  0  0  0
 19 18  1  6  0  0  0
 19 20  1  0  0  0  0
 21 20  1  0  0  0  0
 21 24  1  6  0  0  0
 23 22  1  0  0  0  0
 24 25  1  0  0  0  0
M  END
>  <minimizedAffinity>
-6.87690306

$$$$
