
 OpenBabel12271915183D

 32 35  0  0  1  0  0  0  0  0999 V2000
   20.3540   62.5350   33.5600 C   0  0  0  0  0  0  0  0  0  0  0  0
   20.4130   63.9420   33.3670 C   0  0  0  0  0  0  0  0  0  0  0  0
   19.6950   64.5500   32.3660 C   0  0  0  0  0  0  0  0  0  0  0  0
   18.9440   63.7030   31.5610 C   0  0  0  0  0  0  0  0  0  0  0  0
   18.8570   62.3800   31.6850 N   0  0  0  0  0  0  0  0  0  0  0  0
   19.5230   61.7960   32.6980 C   0  0  0  0  0  0  0  0  0  0  0  0
   19.8000   66.0170   32.2000 C   0  0  0  0  0  0  0  0  0  0  0  0
   20.9420   66.6990   31.8620 C   0  0  0  0  0  0  0  0  0  0  0  0
   21.0240   68.0950   31.7090 C   0  0  0  0  0  0  0  0  0  0  0  0
   19.8410   68.8200   31.9440 C   0  0  0  0  0  0  0  0  0  0  0  0
   19.5640   70.1740   31.9130 N   0  0  0  0  0  0  0  0  0  0  0  0
   20.1580   70.9350   31.7110 H   0  0  0  0  0  0  0  0  0  0  0  0
   18.2950   70.4310   32.2060 N   0  0  0  0  0  0  0  0  0  0  0  0
   17.7250   69.2310   32.4400 C   0  0  0  0  0  0  0  0  0  0  0  0
   16.3220   69.1080   32.8080 C   0  0  0  0  0  0  0  0  0  0  0  0
   18.6950   68.2080   32.2700 C   0  0  0  0  0  0  0  0  0  0  0  0
   18.6240   66.7980   32.3950 C   0  0  0  0  0  0  0  0  0  0  0  0
   21.2040   62.1120   34.5230 O   0  0  0  0  0  0  0  0  0  0  0  0
   22.2410   61.2450   34.1950 C   0  0  0  0  0  0  0  0  0  0  0  0
   23.3790   61.2750   35.2290 C   0  0  1  0  0  0  0  0  0  0  0  0
   23.4740   59.9320   35.9070 N   0  0  0  0  0  0  0  0  0  0  0  0
   22.6150   59.7300   36.4600 H   0  0  0  0  0  0  0  0  0  0  0  0
   24.2530   59.8420   36.5480 H   0  0  0  0  0  0  0  0  0  0  0  0
   23.5130   59.1650   35.1980 H   0  0  0  0  0  0  0  0  0  0  0  0
   24.7550   61.6990   34.6530 C   0  0  0  0  0  0  0  0  0  0  0  0
   24.7380   63.0050   33.9030 C   0  0  0  0  0  0  0  0  0  0  0  0
   24.1040   64.1200   34.4620 C   0  0  0  0  0  0  0  0  0  0  0  0
   24.0560   65.3330   33.7610 C   0  0  0  0  0  0  0  0  0  0  0  0
   24.6480   65.4570   32.5120 C   0  0  0  0  0  0  0  0  0  0  0  0
   24.6200   67.0810   31.5850 Br  0  0  0  0  0  0  0  0  0  0  0  0
   25.2910   64.3500   31.9660 C   0  0  0  0  0  0  0  0  0  0  0  0
   25.3360   63.1290   32.6690 C   0  0  0  0  0  0  0  0  0  0  0  0
  1 18  1  0  0  0  0
  2  1  1  0  0  0  0
  3  2  2  0  0  0  0
  4  5  2  0  0  0  0
  4  3  1  0  0  0  0
  5  6  1  0  0  0  0
  6  1  2  0  0  0  0
  7  3  1  0  0  0  0
  7 17  2  0  0  0  0
  8  7  1  0  0  0  0
  9  8  2  0  0  0  0
  9 10  1  0  0  0  0
 10 16  2  0  0  0  0
 11 10  1  0  0  0  0
 11 13  1  0  0  0  0
 12 11  1  0  0  0  0
 13 14  2  0  0  0  0
 14 15  1  0  0  0  0
 16 17  1  0  0  0  0
 16 14  1  0  0  0  0
 19 18  1  0  0  0  0
 20 19  1  6  0  0  0
 20 21  1  0  0  0  0
 21 22  1  0  0  0  0
 21 23  1  0  0  0  0
 24 21  1  0  0  0  0
 25 20  1  0  0  0  0
 26 27  1  0  0  0  0
 26 25  1  0  0  0  0
 28 27  2  0  0  0  0
 29 28  1  0  0  0  0
 30 29  1  0  0  0  0
 31 29  2  0  0  0  0
 31 32  1  0  0  0  0
 32 26  2  0  0  0  0
M  END
>  <minimizedAffinity>
-9.28942013

$$$$

 OpenBabel12271915183D

 32 35  0  0  1  0  0  0  0  0999 V2000
   21.8290   67.0970   31.9460 C   0  0  0  0  0  0  0  0  0  0  0  0
   22.4820   65.9060   32.3650 C   0  0  0  0  0  0  0  0  0  0  0  0
   23.8510   65.8390   32.4440 C   0  0  0  0  0  0  0  0  0  0  0  0
   24.5350   66.9890   32.0690 C   0  0  0  0  0  0  0  0  0  0  0  0
   23.9820   68.1280   31.6570 N   0  0  0  0  0  0  0  0  0  0  0  0
   22.6380   68.2040   31.6290 C   0  0  0  0  0  0  0  0  0  0  0  0
   24.4820   64.5720   32.8770 C   0  0  0  0  0  0  0  0  0  0  0  0
   24.1760   63.8820   34.0230 C   0  0  0  0  0  0  0  0  0  0  0  0
   24.7860   62.6790   34.4190 C   0  0  0  0  0  0  0  0  0  0  0  0
   25.7920   62.1790   33.5720 C   0  0  0  0  0  0  0  0  0  0  0  0
   26.6050   61.0640   33.6570 N   0  0  0  0  0  0  0  0  0  0  0  0
   26.6450   60.3640   34.3510 H   0  0  0  0  0  0  0  0  0  0  0  0
   27.4320   60.9700   32.6230 N   0  0  0  0  0  0  0  0  0  0  0  0
   27.1690   62.0400   31.8460 C   0  0  0  0  0  0  0  0  0  0  0  0
   27.8970   62.2870   30.6100 C   0  0  0  0  0  0  0  0  0  0  0  0
   26.1290   62.8060   32.4370 C   0  0  0  0  0  0  0  0  0  0  0  0
   25.4860   64.0050   32.0390 C   0  0  0  0  0  0  0  0  0  0  0  0
   20.4910   66.9380   31.8320 O   0  0  0  0  0  0  0  0  0  0  0  0
   19.7570   67.8130   31.0390 C   0  0  0  0  0  0  0  0  0  0  0  0
   18.7840   68.6740   31.8610 C   0  0  1  0  0  0  0  0  0  0  0  0
   17.7950   67.7790   32.5620 N   0  0  0  0  0  0  0  0  0  0  0  0
   17.1940   67.2760   31.8770 H   0  0  0  0  0  0  0  0  0  0  0  0
   17.1660   68.2640   33.1910 H   0  0  0  0  0  0  0  0  0  0  0  0
   18.2900   67.0190   33.0810 H   0  0  0  0  0  0  0  0  0  0  0  0
   19.4720   69.6290   32.8700 C   0  0  0  0  0  0  0  0  0  0  0  0
   18.8780   71.0130   32.9200 C   0  0  0  0  0  0  0  0  0  0  0  0
   19.2370   71.9590   31.9550 C   0  0  0  0  0  0  0  0  0  0  0  0
   18.7150   73.2600   32.0090 C   0  0  0  0  0  0  0  0  0  0  0  0
   17.8210   73.6260   33.0050 C   0  0  0  0  0  0  0  0  0  0  0  0
   17.0920   75.3480   33.0640 Br  0  0  0  0  0  0  0  0  0  0  0  0
   17.4560   72.6780   33.9550 C   0  0  0  0  0  0  0  0  0  0  0  0
   17.9840   71.3720   33.9040 C   0  0  0  0  0  0  0  0  0  0  0  0
  1  2  2  0  0  0  0
  2  3  1  0  0  0  0
  3  7  1  0  0  0  0
  4  3  2  0  0  0  0
  5  4  1  0  0  0  0
  6  5  2  0  0  0  0
  6  1  1  0  0  0  0
  7  8  2  0  0  0  0
  8  9  1  0  0  0  0
 10 11  1  0  0  0  0
 10  9  2  0  0  0  0
 11 12  1  0  0  0  0
 13 11  1  0  0  0  0
 14 16  1  0  0  0  0
 14 13  2  0  0  0  0
 15 14  1  0  0  0  0
 16 10  1  0  0  0  0
 17 16  2  0  0  0  0
 17  7  1  0  0  0  0
 18  1  1  0  0  0  0
 19 18  1  0  0  0  0
 20 19  1  1  0  0  0
 20 21  1  0  0  0  0
 20 25  1  0  0  0  0
 21 24  1  0  0  0  0
 21 23  1  0  0  0  0
 22 21  1  0  0  0  0
 25 26  1  0  0  0  0
 26 32  2  0  0  0  0
 27 28  2  0  0  0  0
 27 26  1  0  0  0  0
 28 29  1  0  0  0  0
 29 30  1  0  0  0  0
 29 31  2  0  0  0  0
 32 31  1  0  0  0  0
M  END
>  <minimizedAffinity>
-9.26211643

$$$$

 OpenBabel12271915183D

 32 35  0  0  1  0  0  0  0  0999 V2000
   21.6040   61.6670   33.0280 C   0  0  0  0  0  0  0  0  0  0  0  0
   21.2100   62.9910   32.6920 C   0  0  0  0  0  0  0  0  0  0  0  0
   19.9090   63.2800   32.3600 C   0  0  0  0  0  0  0  0  0  0  0  0
   19.0330   62.2020   32.3550 C   0  0  0  0  0  0  0  0  0  0  0  0
   19.3430   60.9410   32.6490 N   0  0  0  0  0  0  0  0  0  0  0  0
   20.6090   60.6720   33.0210 C   0  0  0  0  0  0  0  0  0  0  0  0
   19.5530   64.6730   32.0080 C   0  0  0  0  0  0  0  0  0  0  0  0
   20.3540   65.7710   32.2000 C   0  0  0  0  0  0  0  0  0  0  0  0
   19.9980   67.0880   31.8590 C   0  0  0  0  0  0  0  0  0  0  0  0
   18.7190   67.2670   31.3020 C   0  0  0  0  0  0  0  0  0  0  0  0
   18.0420   68.3980   30.8830 N   0  0  0  0  0  0  0  0  0  0  0  0
   18.3270   69.3410   30.8860 H   0  0  0  0  0  0  0  0  0  0  0  0
   16.8330   68.1100   30.4150 N   0  0  0  0  0  0  0  0  0  0  0  0
   16.7060   66.7720   30.5310 C   0  0  0  0  0  0  0  0  0  0  0  0
   15.4920   66.0800   30.1240 C   0  0  0  0  0  0  0  0  0  0  0  0
   17.8970   66.2320   31.0850 C   0  0  0  0  0  0  0  0  0  0  0  0
   18.2800   64.9070   31.4110 C   0  0  0  0  0  0  0  0  0  0  0  0
   22.9380   61.5610   33.2230 O   0  0  0  0  0  0  0  0  0  0  0  0
   23.4520   61.6030   34.5140 C   0  0  0  0  0  0  0  0  0  0  0  0
   24.9790   61.7890   34.5310 C   0  0  1  0  0  0  0  0  0  0  0  0
   25.6390   60.4690   34.8390 N   0  0  0  0  0  0  0  0  0  0  0  0
   25.3980   60.1450   35.7980 H   0  0  0  0  0  0  0  0  0  0  0  0
   26.6510   60.4880   34.7900 H   0  0  0  0  0  0  0  0  0  0  0  0
   25.2720   59.7190   34.2110 H   0  0  0  0  0  0  0  0  0  0  0  0
   25.5620   62.4060   33.2330 C   0  0  0  0  0  0  0  0  0  0  0  0
   25.0510   63.7880   32.9190 C   0  0  0  0  0  0  0  0  0  0  0  0
   24.6640   64.1060   31.6130 C   0  0  0  0  0  0  0  0  0  0  0  0
   24.2170   65.3980   31.3010 C   0  0  0  0  0  0  0  0  0  0  0  0
   24.1330   66.3760   32.2810 C   0  0  0  0  0  0  0  0  0  0  0  0
   23.5020   68.0920   31.8820 Br  0  0  0  0  0  0  0  0  0  0  0  0
   24.5050   66.0530   33.5820 C   0  0  0  0  0  0  0  0  0  0  0  0
   24.9590   64.7550   33.8950 C   0  0  0  0  0  0  0  0  0  0  0  0
  1 18  1  0  0  0  0
  2  1  2  0  0  0  0
  3  2  1  0  0  0  0
  4  3  2  0  0  0  0
  4  5  1  0  0  0  0
  5  6  2  0  0  0  0
  6  1  1  0  0  0  0
  7  8  1  0  0  0  0
  7  3  1  0  0  0  0
  9  8  2  0  0  0  0
 10  9  1  0  0  0  0
 11 12  1  0  0  0  0
 11 10  1  0  0  0  0
 13 14  2  0  0  0  0
 13 11  1  0  0  0  0
 14 16  1  0  0  0  0
 15 14  1  0  0  0  0
 16 10  2  0  0  0  0
 16 17  1  0  0  0  0
 17  7  2  0  0  0  0
 18 19  1  0  0  0  0
 19 20  1  0  0  0  0
 20 25  1  6  0  0  0
 20 21  1  0  0  0  0
 21 22  1  0  0  0  0
 23 21  1  0  0  0  0
 24 21  1  0  0  0  0
 26 25  1  0  0  0  0
 26 32  2  0  0  0  0
 27 26  1  0  0  0  0
 28 27  2  0  0  0  0
 28 29  1  0  0  0  0
 29 31  2  0  0  0  0
 30 29  1  0  0  0  0
 31 32  1  0  0  0  0
M  END
>  <minimizedAffinity>
-9.25121689

$$$$

 OpenBabel12271915183D

 32 35  0  0  1  0  0  0  0  0999 V2000
   21.9480   67.1770   31.7540 C   0  0  0  0  0  0  0  0  0  0  0  0
   22.5680   65.9760   32.1920 C   0  0  0  0  0  0  0  0  0  0  0  0
   23.9170   65.9270   32.4460 C   0  0  0  0  0  0  0  0  0  0  0  0
   24.6160   67.1070   32.2230 C   0  0  0  0  0  0  0  0  0  0  0  0
   24.0950   68.2580   31.8040 N   0  0  0  0  0  0  0  0  0  0  0  0
   22.7650   68.3130   31.6050 C   0  0  0  0  0  0  0  0  0  0  0  0
   24.5160   64.6490   32.8900 C   0  0  0  0  0  0  0  0  0  0  0  0
   24.1880   63.9750   34.0390 C   0  0  0  0  0  0  0  0  0  0  0  0
   24.7690   62.7600   34.4460 C   0  0  0  0  0  0  0  0  0  0  0  0
   25.7660   62.2310   33.6080 C   0  0  0  0  0  0  0  0  0  0  0  0
   26.5520   61.0970   33.7040 N   0  0  0  0  0  0  0  0  0  0  0  0
   26.5730   60.4020   34.4030 H   0  0  0  0  0  0  0  0  0  0  0  0
   27.3820   60.9770   32.6750 N   0  0  0  0  0  0  0  0  0  0  0  0
   27.1480   62.0480   31.8890 C   0  0  0  0  0  0  0  0  0  0  0  0
   27.8870   62.2690   30.6550 C   0  0  0  0  0  0  0  0  0  0  0  0
   26.1230   62.8420   32.4700 C   0  0  0  0  0  0  0  0  0  0  0  0
   25.5100   64.0520   32.0610 C   0  0  0  0  0  0  0  0  0  0  0  0
   20.6390   67.0030   31.4590 O   0  0  0  0  0  0  0  0  0  0  0  0
   19.6780   67.7770   32.1000 C   0  0  0  0  0  0  0  0  0  0  0  0
   18.3520   67.0240   32.2930 C   0  0  1  0  0  0  0  0  0  0  0  0
   17.2600   68.0110   32.6210 N   0  0  0  0  0  0  0  0  0  0  0  0
   17.4380   68.4760   33.5340 H   0  0  0  0  0  0  0  0  0  0  0  0
   16.3350   67.6030   32.6840 H   0  0  0  0  0  0  0  0  0  0  0  0
   17.2510   68.7920   31.9270 H   0  0  0  0  0  0  0  0  0  0  0  0
   17.9440   66.1310   31.0930 C   0  0  0  0  0  0  0  0  0  0  0  0
   17.9850   64.6520   31.3770 C   0  0  0  0  0  0  0  0  0  0  0  0
   16.7930   63.9230   31.4420 C   0  0  0  0  0  0  0  0  0  0  0  0
   16.8160   62.5520   31.7360 C   0  0  0  0  0  0  0  0  0  0  0  0
   18.0170   61.8910   31.9500 C   0  0  0  0  0  0  0  0  0  0  0  0
   18.0590   60.0550   32.3080 Br  0  0  0  0  0  0  0  0  0  0  0  0
   19.2010   62.6170   31.8710 C   0  0  0  0  0  0  0  0  0  0  0  0
   19.1780   63.9960   31.5790 C   0  0  0  0  0  0  0  0  0  0  0  0
  1  2  1  0  0  0  0
  2  3  2  0  0  0  0
  3  7  1  0  0  0  0
  4  3  1  0  0  0  0
  5  4  2  0  0  0  0
  6  1  2  0  0  0  0
  6  5  1  0  0  0  0
  7  8  2  0  0  0  0
  8  9  1  0  0  0  0
 10 11  1  0  0  0  0
 10  9  2  0  0  0  0
 11 12  1  0  0  0  0
 13 11  1  0  0  0  0
 14 16  1  0  0  0  0
 14 13  2  0  0  0  0
 15 14  1  0  0  0  0
 16 10  1  0  0  0  0
 17 16  2  0  0  0  0
 17  7  1  0  0  0  0
 18  1  1  0  0  0  0
 18 19  1  0  0  0  0
 19 20  1  0  0  0  0
 20 25  1  6  0  0  0
 20 21  1  0  0  0  0
 21 23  1  0  0  0  0
 21 22  1  0  0  0  0
 24 21  1  0  0  0  0
 25 26  1  0  0  0  0
 26 27  2  0  0  0  0
 26 32  1  0  0  0  0
 27 28  1  0  0  0  0
 28 29  2  0  0  0  0
 29 30  1  0  0  0  0
 31 29  1  0  0  0  0
 32 31  2  0  0  0  0
M  END
>  <minimizedAffinity>
-9.04660988

$$$$

 OpenBabel12271915183D

 32 35  0  0  1  0  0  0  0  0999 V2000
   20.7560   61.1370   33.1010 C   0  0  0  0  0  0  0  0  0  0  0  0
   20.1880   62.3560   32.6420 C   0  0  0  0  0  0  0  0  0  0  0  0
   18.9190   62.3930   32.1150 C   0  0  0  0  0  0  0  0  0  0  0  0
   18.2600   61.1720   32.0460 C   0  0  0  0  0  0  0  0  0  0  0  0
   18.7410   59.9980   32.4480 N   0  0  0  0  0  0  0  0  0  0  0  0
   19.9660   59.9770   33.0080 C   0  0  0  0  0  0  0  0  0  0  0  0
   18.3780   63.6860   31.6420 C   0  0  0  0  0  0  0  0  0  0  0  0
   17.1310   63.8760   31.1030 C   0  0  0  0  0  0  0  0  0  0  0  0
   16.6330   65.1130   30.6570 C   0  0  0  0  0  0  0  0  0  0  0  0
   17.5020   66.2130   30.7650 C   0  0  0  0  0  0  0  0  0  0  0  0
   17.3630   67.5420   30.4100 N   0  0  0  0  0  0  0  0  0  0  0  0
   16.5980   68.0080   29.9970 H   0  0  0  0  0  0  0  0  0  0  0  0
   18.4500   68.2500   30.6910 N   0  0  0  0  0  0  0  0  0  0  0  0
   19.3240   67.3780   31.2330 C   0  0  0  0  0  0  0  0  0  0  0  0
   20.6520   67.7910   31.6620 C   0  0  0  0  0  0  0  0  0  0  0  0
   18.7290   66.0900   31.2880 C   0  0  0  0  0  0  0  0  0  0  0  0
   19.2070   64.8400   31.7570 C   0  0  0  0  0  0  0  0  0  0  0  0
   22.0440   61.2820   33.4870 O   0  0  0  0  0  0  0  0  0  0  0  0
   22.3410   61.9890   34.6470 C   0  0  0  0  0  0  0  0  0  0  0  0
   23.6990   61.5880   35.2460 C   0  0  1  0  0  0  0  0  0  0  0  0
   23.6940   60.1110   35.5490 N   0  0  0  0  0  0  0  0  0  0  0  0
   22.9970   59.8830   36.2890 H   0  0  0  0  0  0  0  0  0  0  0  0
   24.5820   59.7490   35.8740 H   0  0  0  0  0  0  0  0  0  0  0  0
   23.3770   59.5660   34.7160 H   0  0  0  0  0  0  0  0  0  0  0  0
   24.9210   61.9640   34.3690 C   0  0  0  0  0  0  0  0  0  0  0  0
   24.8050   63.3000   33.6830 C   0  0  0  0  0  0  0  0  0  0  0  0
   24.7380   64.4700   34.4450 C   0  0  0  0  0  0  0  0  0  0  0  0
   24.5990   65.7170   33.8190 C   0  0  0  0  0  0  0  0  0  0  0  0
   24.5430   65.8160   32.4360 C   0  0  0  0  0  0  0  0  0  0  0  0
   24.3940   67.4780   31.5910 Br  0  0  0  0  0  0  0  0  0  0  0  0
   24.6250   64.6510   31.6800 C   0  0  0  0  0  0  0  0  0  0  0  0
   24.7610   63.3960   32.3100 C   0  0  0  0  0  0  0  0  0  0  0  0
  1 18  1  0  0  0  0
  2  1  2  0  0  0  0
  3  2  1  0  0  0  0
  4  3  2  0  0  0  0
  4  5  1  0  0  0  0
  5  6  2  0  0  0  0
  6  1  1  0  0  0  0
  7 17  1  0  0  0  0
  7  3  1  0  0  0  0
  8  7  2  0  0  0  0
  9 10  2  0  0  0  0
  9  8  1  0  0  0  0
 10 16  1  0  0  0  0
 11 13  1  0  0  0  0
 11 10  1  0  0  0  0
 12 11  1  0  0  0  0
 13 14  2  0  0  0  0
 14 16  1  0  0  0  0
 14 15  1  0  0  0  0
 16 17  2  0  0  0  0
 18 19  1  0  0  0  0
 19 20  1  0  0  0  0
 20 25  1  6  0  0  0
 20 21  1  0  0  0  0
 21 23  1  0  0  0  0
 21 22  1  0  0  0  0
 24 21  1  0  0  0  0
 26 25  1  0  0  0  0
 26 27  2  0  0  0  0
 28 27  1  0  0  0  0
 29 28  2  0  0  0  0
 30 29  1  0  0  0  0
 31 32  2  0  0  0  0
 31 29  1  0  0  0  0
 32 26  1  0  0  0  0
M  END
>  <minimizedAffinity>
-8.87703133

$$$$

 OpenBabel12271915183D

 32 35  0  0  1  0  0  0  0  0999 V2000
   20.6130   65.9100   32.1680 C   0  0  0  0  0  0  0  0  0  0  0  0
   21.6680   64.9900   32.4120 C   0  0  0  0  0  0  0  0  0  0  0  0
   22.9820   65.3820   32.3270 C   0  0  0  0  0  0  0  0  0  0  0  0
   23.1950   66.7070   31.9690 C   0  0  0  0  0  0  0  0  0  0  0  0
   22.2510   67.6110   31.7180 N   0  0  0  0  0  0  0  0  0  0  0  0
   20.9650   67.2340   31.8510 C   0  0  0  0  0  0  0  0  0  0  0  0
   24.0450   64.3830   32.5800 C   0  0  0  0  0  0  0  0  0  0  0  0
   25.2610   64.3390   31.9470 C   0  0  0  0  0  0  0  0  0  0  0  0
   26.2590   63.3810   32.2000 C   0  0  0  0  0  0  0  0  0  0  0  0
   25.9560   62.3990   33.1610 C   0  0  0  0  0  0  0  0  0  0  0  0
   26.6690   61.3130   33.6320 N   0  0  0  0  0  0  0  0  0  0  0  0
   27.5700   60.9950   33.3860 H   0  0  0  0  0  0  0  0  0  0  0  0
   25.9950   60.6340   34.5530 N   0  0  0  0  0  0  0  0  0  0  0  0
   24.8150   61.2750   34.6880 C   0  0  0  0  0  0  0  0  0  0  0  0
   23.7920   60.8100   35.6120 C   0  0  0  0  0  0  0  0  0  0  0  0
   24.7860   62.3950   33.8150 C   0  0  0  0  0  0  0  0  0  0  0  0
   23.8010   63.3830   33.5670 C   0  0  0  0  0  0  0  0  0  0  0  0
   19.3970   65.3180   32.1970 O   0  0  0  0  0  0  0  0  0  0  0  0
   19.1830   64.1450   31.4810 C   0  0  0  0  0  0  0  0  0  0  0  0
   18.5050   63.0560   32.3280 C   0  0  1  0  0  0  0  0  0  0  0  0
   18.5960   63.4290   33.7870 N   0  0  0  0  0  0  0  0  0  0  0  0
   19.5860   63.4400   34.1080 H   0  0  0  0  0  0  0  0  0  0  0  0
   18.1020   62.8010   34.4090 H   0  0  0  0  0  0  0  0  0  0  0  0
   18.2610   64.4070   33.9370 H   0  0  0  0  0  0  0  0  0  0  0  0
   17.0370   62.7570   31.9290 C   0  0  0  0  0  0  0  0  0  0  0  0
   16.5860   61.3510   32.2290 C   0  0  0  0  0  0  0  0  0  0  0  0
   17.5310   60.3260   32.3390 C   0  0  0  0  0  0  0  0  0  0  0  0
   17.1220   59.0080   32.5870 C   0  0  0  0  0  0  0  0  0  0  0  0
   15.7780   58.6990   32.7460 C   0  0  0  0  0  0  0  0  0  0  0  0
   15.2260   56.9500   33.1130 Br  0  0  0  0  0  0  0  0  0  0  0  0
   14.8420   59.7230   32.6500 C   0  0  0  0  0  0  0  0  0  0  0  0
   15.2530   61.0480   32.3960 C   0  0  0  0  0  0  0  0  0  0  0  0
  1 18  1  0  0  0  0
  1  2  2  0  0  0  0
  3  2  1  0  0  0  0
  3  7  1  0  0  0  0
  4  3  2  0  0  0  0
  5  6  2  0  0  0  0
  5  4  1  0  0  0  0
  6  1  1  0  0  0  0
  7 17  2  0  0  0  0
  8  9  2  0  0  0  0
  8  7  1  0  0  0  0
  9 10  1  0  0  0  0
 10 11  1  0  0  0  0
 10 16  2  0  0  0  0
 11 13  1  0  0  0  0
 12 11  1  0  0  0  0
 13 14  2  0  0  0  0
 14 15  1  0  0  0  0
 16 14  1  0  0  0  0
 17 16  1  0  0  0  0
 19 18  1  0  0  0  0
 20 19  1  6  0  0  0
 20 21  1  0  0  0  0
 21 24  1  0  0  0  0
 21 22  1  0  0  0  0
 21 23  1  0  0  0  0
 25 26  1  0  0  0  0
 25 20  1  0  0  0  0
 26 27  2  0  0  0  0
 26 32  1  0  0  0  0
 27 28  1  0  0  0  0
 28 29  2  0  0  0  0
 29 30  1  0  0  0  0
 31 29  1  0  0  0  0
 32 31  2  0  0  0  0
M  END
>  <minimizedAffinity>
-8.87302685

$$$$

 OpenBabel12271915183D

 32 35  0  0  1  0  0  0  0  0999 V2000
   19.5050   65.7080   31.8150 C   0  0  0  0  0  0  0  0  0  0  0  0
   19.7540   64.3340   32.0810 C   0  0  0  0  0  0  0  0  0  0  0  0
   18.7720   63.3890   31.9020 C   0  0  0  0  0  0  0  0  0  0  0  0
   17.5420   63.8710   31.4740 C   0  0  0  0  0  0  0  0  0  0  0  0
   17.2450   65.1440   31.2200 N   0  0  0  0  0  0  0  0  0  0  0  0
   18.2250   66.0580   31.3500 C   0  0  0  0  0  0  0  0  0  0  0  0
   19.0790   61.9730   32.2040 C   0  0  0  0  0  0  0  0  0  0  0  0
   20.3340   61.4570   32.4050 C   0  0  0  0  0  0  0  0  0  0  0  0
   20.6070   60.1070   32.6900 C   0  0  0  0  0  0  0  0  0  0  0  0
   19.4990   59.2430   32.7480 C   0  0  0  0  0  0  0  0  0  0  0  0
   19.3950   57.8830   32.9730 N   0  0  0  0  0  0  0  0  0  0  0  0
   20.1010   57.2170   33.1470 H   0  0  0  0  0  0  0  0  0  0  0  0
   18.1350   57.4660   32.9390 N   0  0  0  0  0  0  0  0  0  0  0  0
   17.3940   58.5630   32.6820 C   0  0  0  0  0  0  0  0  0  0  0  0
   15.9460   58.4970   32.5580 C   0  0  0  0  0  0  0  0  0  0  0  0
   18.2490   59.6910   32.5660 C   0  0  0  0  0  0  0  0  0  0  0  0
   17.9890   61.0600   32.3050 C   0  0  0  0  0  0  0  0  0  0  0  0
   20.5540   66.4940   32.1480 O   0  0  0  0  0  0  0  0  0  0  0  0
   21.8240   65.9400   32.2600 C   0  0  0  0  0  0  0  0  0  0  0  0
   22.9090   66.8270   31.6280 C   0  0  1  0  0  0  0  0  0  0  0  0
   22.4100   68.2480   31.5510 N   0  0  0  0  0  0  0  0  0  0  0  0
   21.5940   68.3230   30.9090 H   0  0  0  0  0  0  0  0  0  0  0  0
   23.0970   68.9130   31.2190 H   0  0  0  0  0  0  0  0  0  0  0  0
   22.0420   68.5580   32.4780 H   0  0  0  0  0  0  0  0  0  0  0  0
   24.2830   66.7650   32.3440 C   0  0  0  0  0  0  0  0  0  0  0  0
   24.6450   65.4030   32.8770 C   0  0  0  0  0  0  0  0  0  0  0  0
   25.2030   64.4480   32.0210 C   0  0  0  0  0  0  0  0  0  0  0  0
   25.5150   63.1660   32.4980 C   0  0  0  0  0  0  0  0  0  0  0  0
   25.2940   62.8280   33.8250 C   0  0  0  0  0  0  0  0  0  0  0  0
   25.7420   61.1330   34.4780 Br  0  0  0  0  0  0  0  0  0  0  0  0
   24.7530   63.7860   34.6770 C   0  0  0  0  0  0  0  0  0  0  0  0
   24.4350   65.0730   34.1970 C   0  0  0  0  0  0  0  0  0  0  0  0
  1  2  2  0  0  0  0
  1 18  1  0  0  0  0
  3  2  1  0  0  0  0
  3  7  1  0  0  0  0
  4  3  2  0  0  0  0
  5  6  2  0  0  0  0
  5  4  1  0  0  0  0
  6  1  1  0  0  0  0
  7 17  2  0  0  0  0
  7  8  1  0  0  0  0
  8  9  2  0  0  0  0
  9 10  1  0  0  0  0
 10 11  1  0  0  0  0
 11 12  1  0  0  0  0
 13 11  1  0  0  0  0
 14 13  2  0  0  0  0
 15 14  1  0  0  0  0
 16 14  1  0  0  0  0
 16 10  2  0  0  0  0
 17 16  1  0  0  0  0
 18 19  1  0  0  0  0
 20 19  1  1  0  0  0
 20 25  1  0  0  0  0
 21 20  1  0  0  0  0
 21 24  1  0  0  0  0
 22 21  1  0  0  0  0
 23 21  1  0  0  0  0
 25 26  1  0  0  0  0
 26 32  2  0  0  0  0
 27 28  2  0  0  0  0
 27 26  1  0  0  0  0
 28 29  1  0  0  0  0
 29 30  1  0  0  0  0
 29 31  2  0  0  0  0
 32 31  1  0  0  0  0
M  END
>  <minimizedAffinity>
-8.83071709

$$$$

 OpenBabel12271915183D

 32 35  0  0  1  0  0  0  0  0999 V2000
   16.2450   65.6020   30.5920 C   0  0  0  0  0  0  0  0  0  0  0  0
   17.1170   64.5140   30.8680 C   0  0  0  0  0  0  0  0  0  0  0  0
   16.7710   63.5420   31.7760 C   0  0  0  0  0  0  0  0  0  0  0  0
   15.5450   63.7140   32.4060 C   0  0  0  0  0  0  0  0  0  0  0  0
   14.6920   64.7150   32.1990 N   0  0  0  0  0  0  0  0  0  0  0  0
   15.0140   65.6370   31.2720 C   0  0  0  0  0  0  0  0  0  0  0  0
   17.7190   62.4350   32.0350 C   0  0  0  0  0  0  0  0  0  0  0  0
   19.0820   62.5600   32.1210 C   0  0  0  0  0  0  0  0  0  0  0  0
   19.9680   61.4960   32.3670 C   0  0  0  0  0  0  0  0  0  0  0  0
   19.3910   60.2220   32.5140 C   0  0  0  0  0  0  0  0  0  0  0  0
   19.9440   58.9740   32.7330 N   0  0  0  0  0  0  0  0  0  0  0  0
   20.8890   58.7130   32.8380 H   0  0  0  0  0  0  0  0  0  0  0  0
   19.0200   58.0240   32.8050 N   0  0  0  0  0  0  0  0  0  0  0  0
   17.8380   58.6500   32.6250 C   0  0  0  0  0  0  0  0  0  0  0  0
   16.5780   57.9220   32.6280 C   0  0  0  0  0  0  0  0  0  0  0  0
   18.0650   60.0400   32.4460 C   0  0  0  0  0  0  0  0  0  0  0  0
   17.1840   61.1270   32.2230 C   0  0  0  0  0  0  0  0  0  0  0  0
   16.8000   66.5060   29.7530 O   0  0  0  0  0  0  0  0  0  0  0  0
   17.3980   67.6510   30.2680 C   0  0  0  0  0  0  0  0  0  0  0  0
   18.9330   67.5840   30.2180 C   0  0  1  0  0  0  0  0  0  0  0  0
   19.4330   68.4420   29.0840 N   0  0  0  0  0  0  0  0  0  0  0  0
   19.1190   68.0680   28.1650 H   0  0  0  0  0  0  0  0  0  0  0  0
   20.4420   68.5170   29.0310 H   0  0  0  0  0  0  0  0  0  0  0  0
   19.0130   69.3980   29.1330 H   0  0  0  0  0  0  0  0  0  0  0  0
   19.6330   67.9680   31.5470 C   0  0  0  0  0  0  0  0  0  0  0  0
   20.8920   67.1910   31.8330 C   0  0  0  0  0  0  0  0  0  0  0  0
   22.1360   67.8220   31.7330 C   0  0  0  0  0  0  0  0  0  0  0  0
   23.3170   67.1020   31.9660 C   0  0  0  0  0  0  0  0  0  0  0  0
   23.2740   65.7600   32.3160 C   0  0  0  0  0  0  0  0  0  0  0  0
   24.8420   64.8010   32.6630 Br  0  0  0  0  0  0  0  0  0  0  0  0
   22.0340   65.1400   32.4280 C   0  0  0  0  0  0  0  0  0  0  0  0
   20.8470   65.8620   32.1900 C   0  0  0  0  0  0  0  0  0  0  0  0
  1  2  2  0  0  0  0
  1  6  1  0  0  0  0
  2  3  1  0  0  0  0
  3  7  1  0  0  0  0
  3  4  2  0  0  0  0
  5  4  1  0  0  0  0
  6  5  2  0  0  0  0
  7  8  2  0  0  0  0
  7 17  1  0  0  0  0
  8  9  1  0  0  0  0
  9 10  2  0  0  0  0
 10 11  1  0  0  0  0
 11 13  1  0  0  0  0
 11 12  1  0  0  0  0
 14 15  1  0  0  0  0
 14 13  2  0  0  0  0
 16 10  1  0  0  0  0
 16 14  1  0  0  0  0
 17 16  2  0  0  0  0
 18 19  1  0  0  0  0
 18  1  1  0  0  0  0
 20 19  1  1  0  0  0
 20 25  1  0  0  0  0
 21 24  1  0  0  0  0
 21 20  1  0  0  0  0
 22 21  1  0  0  0  0
 23 21  1  0  0  0  0
 25 26  1  0  0  0  0
 26 32  1  0  0  0  0
 27 26  2  0  0  0  0
 27 28  1  0  0  0  0
 28 29  2  0  0  0  0
 29 31  1  0  0  0  0
 29 30  1  0  0  0  0
 32 31  2  0  0  0  0
M  END
>  <minimizedAffinity>
-8.81285381

$$$$

 OpenBabel12271915183D

 32 35  0  0  1  0  0  0  0  0999 V2000
   20.4320   67.7000   31.5030 C   0  0  0  0  0  0  0  0  0  0  0  0
   20.4270   66.2820   31.5960 C   0  0  0  0  0  0  0  0  0  0  0  0
   19.2480   65.5830   31.6920 C   0  0  0  0  0  0  0  0  0  0  0  0
   18.0910   66.3510   31.7140 C   0  0  0  0  0  0  0  0  0  0  0  0
   18.0320   67.6790   31.6420 N   0  0  0  0  0  0  0  0  0  0  0  0
   19.1880   68.3550   31.4980 C   0  0  0  0  0  0  0  0  0  0  0  0
   19.2980   64.1070   31.7980 C   0  0  0  0  0  0  0  0  0  0  0  0
   20.4280   63.3390   31.6780 C   0  0  0  0  0  0  0  0  0  0  0  0
   20.4570   61.9370   31.7810 C   0  0  0  0  0  0  0  0  0  0  0  0
   19.2220   61.3010   32.0030 C   0  0  0  0  0  0  0  0  0  0  0  0
   18.8760   59.9680   32.1270 N   0  0  0  0  0  0  0  0  0  0  0  0
   19.4440   59.1630   32.0870 H   0  0  0  0  0  0  0  0  0  0  0  0
   17.5740   59.8070   32.3300 N   0  0  0  0  0  0  0  0  0  0  0  0
   17.0490   61.0500   32.3340 C   0  0  0  0  0  0  0  0  0  0  0  0
   15.6240   61.2780   32.5210 C   0  0  0  0  0  0  0  0  0  0  0  0
   18.0860   61.9990   32.1340 C   0  0  0  0  0  0  0  0  0  0  0  0
   18.0780   63.4140   32.0540 C   0  0  0  0  0  0  0  0  0  0  0  0
   21.6840   68.2120   31.5210 O   0  0  0  0  0  0  0  0  0  0  0  0
   22.6610   67.6190   32.3120 C   0  0  0  0  0  0  0  0  0  0  0  0
   23.9340   67.2810   31.5180 C   0  0  1  0  0  0  0  0  0  0  0  0
   25.1440   67.5440   32.3780 N   0  0  0  0  0  0  0  0  0  0  0  0
   25.2300   68.5570   32.6040 H   0  0  0  0  0  0  0  0  0  0  0  0
   26.0230   67.2700   31.9560 H   0  0  0  0  0  0  0  0  0  0  0  0
   25.0420   67.0780   33.3080 H   0  0  0  0  0  0  0  0  0  0  0  0
   23.9680   65.8400   30.9480 C   0  0  0  0  0  0  0  0  0  0  0  0
   24.2900   64.7770   31.9650 C   0  0  0  0  0  0  0  0  0  0  0  0
   23.3850   64.5040   32.9960 C   0  0  0  0  0  0  0  0  0  0  0  0
   23.6880   63.5390   33.9670 C   0  0  0  0  0  0  0  0  0  0  0  0
   24.8770   62.8250   33.9150 C   0  0  0  0  0  0  0  0  0  0  0  0
   25.2720   61.5100   35.1850 Br  0  0  0  0  0  0  0  0  0  0  0  0
   25.7680   63.0890   32.8790 C   0  0  0  0  0  0  0  0  0  0  0  0
   25.4660   64.0630   31.9050 C   0  0  0  0  0  0  0  0  0  0  0  0
  1 18  1  0  0  0  0
  1  2  1  0  0  0  0
  2  3  2  0  0  0  0
  3  4  1  0  0  0  0
  3  7  1  0  0  0  0
  5  4  2  0  0  0  0
  6  1  2  0  0  0  0
  6  5  1  0  0  0  0
  7 17  2  0  0  0  0
  8  9  2  0  0  0  0
  8  7  1  0  0  0  0
  9 10  1  0  0  0  0
 10 11  1  0  0  0  0
 10 16  2  0  0  0  0
 11 13  1  0  0  0  0
 12 11  1  0  0  0  0
 13 14  2  0  0  0  0
 14 15  1  0  0  0  0
 16 14  1  0  0  0  0
 17 16  1  0  0  0  0
 18 19  1  0  0  0  0
 20 25  1  1  0  0  0
 20 19  1  0  0  0  0
 20 21  1  0  0  0  0
 21 22  1  0  0  0  0
 21 24  1  0  0  0  0
 23 21  1  0  0  0  0
 25 26  1  0  0  0  0
 26 27  1  0  0  0  0
 27 28  2  0  0  0  0
 29 28  1  0  0  0  0
 29 30  1  0  0  0  0
 31 29  2  0  0  0  0
 32 26  2  0  0  0  0
 32 31  1  0  0  0  0
M  END
>  <minimizedAffinity>
-8.76573086

$$$$
