
 OpenBabel12271915193D

 32 35  0  0  1  0  0  0  0  0999 V2000
   16.3640   65.2410   31.1960 C   0  0  1  0  0  0  0  0  0  0  0  0
   14.9490   65.3350   30.7100 N   0  0  0  0  0  0  0  0  0  0  0  0
   14.4110   64.5020   30.9800 H   0  0  0  0  0  0  0  0  0  0  0  0
   14.4810   66.1420   31.1300 H   0  0  0  0  0  0  0  0  0  0  0  0
   14.9160   65.4730   29.6900 H   0  0  0  0  0  0  0  0  0  0  0  0
   17.0480   63.9260   30.7630 C   0  0  0  0  0  0  0  0  0  0  0  0
   17.5640   63.1110   31.8970 C   0  0  0  0  0  0  0  0  0  0  0  0
   18.8540   62.5380   32.0130 C   0  0  0  0  0  0  0  0  0  0  0  0
   19.9860   62.5210   31.1940 C   0  0  0  0  0  0  0  0  0  0  0  0
   21.1370   61.8580   31.6120 C   0  0  0  0  0  0  0  0  0  0  0  0
   21.1740   61.1990   32.8220 C   0  0  0  0  0  0  0  0  0  0  0  0
   20.0560   61.1850   33.6430 C   0  0  0  0  0  0  0  0  0  0  0  0
   18.9080   61.8660   33.2170 C   0  0  0  0  0  0  0  0  0  0  0  0
   17.6820   61.9820   33.8260 N   0  0  0  0  0  0  0  0  0  0  0  0
   17.4260   61.5700   34.7080 H   0  0  0  0  0  0  0  0  0  0  0  0
   16.8650   62.7380   33.0260 C   0  0  0  0  0  0  0  0  0  0  0  0
   17.1340   66.4790   30.7330 C   0  0  0  0  0  0  0  0  0  0  0  0
   17.7970   66.9870   31.8890 O   0  0  0  0  0  0  0  0  0  0  0  0
   19.1460   67.0710   31.9030 C   0  0  0  0  0  0  0  0  0  0  0  0
   20.0060   66.0430   32.2410 C   0  0  0  0  0  0  0  0  0  0  0  0
   21.3910   66.2400   32.1690 C   0  0  0  0  0  0  0  0  0  0  0  0
   21.8360   67.4840   31.7700 C   0  0  0  0  0  0  0  0  0  0  0  0
   21.0070   68.4980   31.4590 N   0  0  0  0  0  0  0  0  0  0  0  0
   19.6800   68.2860   31.5280 C   0  0  0  0  0  0  0  0  0  0  0  0
   22.2630   65.1300   32.5130 C   0  0  0  0  0  0  0  0  0  0  0  0
   23.5880   65.0780   32.2730 C   0  0  0  0  0  0  0  0  0  0  0  0
   24.4680   63.9590   32.6210 C   0  0  0  0  0  0  0  0  0  0  0  0
   25.6820   63.8290   31.9470 C   0  0  0  0  0  0  0  0  0  0  0  0
   26.5250   62.7800   32.2620 C   0  0  0  0  0  0  0  0  0  0  0  0
   26.2300   61.8610   33.2040 N   0  0  0  0  0  0  0  0  0  0  0  0
   25.0550   61.9940   33.8510 C   0  0  0  0  0  0  0  0  0  0  0  0
   24.1640   63.0160   33.5890 C   0  0  0  0  0  0  0  0  0  0  0  0
  1 17  1  6  0  0  0
  2  3  1  0  0  0  0
  2  4  1  0  0  0  0
  2  1  1  0  0  0  0
  5  2  1  0  0  0  0
  6  1  1  0  0  0  0
  6  7  1  0  0  0  0
  7  8  1  0  0  0  0
  7 16  2  0  0  0  0
  8 13  2  0  0  0  0
  9 10  2  0  0  0  0
  9  8  1  0  0  0  0
 10 11  1  0  0  0  0
 11 12  2  0  0  0  0
 13 12  1  0  0  0  0
 13 14  1  0  0  0  0
 14 15  1  0  0  0  0
 16 14  1  0  0  0  0
 17 18  1  0  0  0  0
 18 19  1  0  0  0  0
 19 20  2  0  0  0  0
 21 20  1  0  0  0  0
 21 25  1  0  0  0  0
 22 21  2  0  0  0  0
 23 24  2  0  0  0  0
 23 22  1  0  0  0  0
 24 19  1  0  0  0  0
 26 25  2  0  0  0  0
 26 27  1  0  0  0  0
 27 32  2  0  0  0  0
 28 29  2  0  0  0  0
 28 27  1  0  0  0  0
 29 30  1  0  0  0  0
 30 31  2  0  0  0  0
 32 31  1  0  0  0  0
M  END
>  <minimizedAffinity>
-8.3570385

$$$$

 OpenBabel12271915193D

 32 35  0  0  1  0  0  0  0  0999 V2000
   24.1450   61.5310   35.2030 C   0  0  1  0  0  0  0  0  0  0  0  0
   25.1150   60.3940   35.0860 N   0  0  0  0  0  0  0  0  0  0  0  0
   25.8590   60.4710   35.7890 H   0  0  0  0  0  0  0  0  0  0  0  0
   24.6400   59.5020   35.2490 H   0  0  0  0  0  0  0  0  0  0  0  0
   25.5150   60.3440   34.1380 H   0  0  0  0  0  0  0  0  0  0  0  0
   24.8470   62.9070   35.1770 C   0  0  0  0  0  0  0  0  0  0  0  0
   25.0820   63.4390   33.8070 C   0  0  0  0  0  0  0  0  0  0  0  0
   24.4170   64.5290   33.1940 C   0  0  0  0  0  0  0  0  0  0  0  0
   23.4040   65.4010   33.6000 C   0  0  0  0  0  0  0  0  0  0  0  0
   22.9650   66.4070   32.7420 C   0  0  0  0  0  0  0  0  0  0  0  0
   23.5060   66.5460   31.4820 C   0  0  0  0  0  0  0  0  0  0  0  0
   24.4990   65.6800   31.0490 C   0  0  0  0  0  0  0  0  0  0  0  0
   24.9410   64.6810   31.9260 C   0  0  0  0  0  0  0  0  0  0  0  0
   25.8810   63.6980   31.7320 N   0  0  0  0  0  0  0  0  0  0  0  0
   26.4090   63.5520   30.8880 H   0  0  0  0  0  0  0  0  0  0  0  0
   25.9690   62.9430   32.8740 C   0  0  0  0  0  0  0  0  0  0  0  0
   23.0840   61.3970   34.1080 C   0  0  0  0  0  0  0  0  0  0  0  0
   21.9530   62.1360   34.5630 O   0  0  0  0  0  0  0  0  0  0  0  0
   20.9070   62.3380   33.7310 C   0  0  0  0  0  0  0  0  0  0  0  0
   20.4840   63.5700   33.2660 C   0  0  0  0  0  0  0  0  0  0  0  0
   19.4140   63.6440   32.3650 C   0  0  0  0  0  0  0  0  0  0  0  0
   18.8130   62.4600   31.9920 C   0  0  0  0  0  0  0  0  0  0  0  0
   19.2040   61.2570   32.4550 N   0  0  0  0  0  0  0  0  0  0  0  0
   20.2390   61.2060   33.3150 C   0  0  0  0  0  0  0  0  0  0  0  0
   19.0110   64.9550   31.8840 C   0  0  0  0  0  0  0  0  0  0  0  0
   19.5930   66.1210   32.2260 C   0  0  0  0  0  0  0  0  0  0  0  0
   19.1880   67.4430   31.7390 C   0  0  0  0  0  0  0  0  0  0  0  0
   18.6690   67.5490   30.4490 C   0  0  0  0  0  0  0  0  0  0  0  0
   18.2810   68.7880   29.9720 C   0  0  0  0  0  0  0  0  0  0  0  0
   18.3780   69.9160   30.7030 N   0  0  0  0  0  0  0  0  0  0  0  0
   18.8810   69.8050   31.9490 C   0  0  0  0  0  0  0  0  0  0  0  0
   19.2870   68.6020   32.4910 C   0  0  0  0  0  0  0  0  0  0  0  0
  1 17  1  6  0  0  0
  2  1  1  0  0  0  0
  2  4  1  0  0  0  0
  2  3  1  0  0  0  0
  5  2  1  0  0  0  0
  6  1  1  0  0  0  0
  7  6  1  0  0  0  0
  8  9  1  0  0  0  0
  8  7  1  0  0  0  0
 10  9  2  0  0  0  0
 11 10  1  0  0  0  0
 12 11  2  0  0  0  0
 12 13  1  0  0  0  0
 13  8  2  0  0  0  0
 14 13  1  0  0  0  0
 14 16  1  0  0  0  0
 15 14  1  0  0  0  0
 16  7  2  0  0  0  0
 17 18  1  0  0  0  0
 19 18  1  0  0  0  0
 20 19  2  0  0  0  0
 21 20  1  0  0  0  0
 22 21  2  0  0  0  0
 22 23  1  0  0  0  0
 23 24  2  0  0  0  0
 24 19  1  0  0  0  0
 25 26  2  0  0  0  0
 25 21  1  0  0  0  0
 27 26  1  0  0  0  0
 27 32  2  0  0  0  0
 28 27  1  0  0  0  0
 29 28  2  0  0  0  0
 29 30  1  0  0  0  0
 30 31  2  0  0  0  0
 31 32  1  0  0  0  0
M  END
>  <minimizedAffinity>
-8.34602737

$$$$

 OpenBabel12271915193D

 32 35  0  0  1  0  0  0  0  0999 V2000
   18.2750   66.1910   32.0320 C   0  0  1  0  0  0  0  0  0  0  0  0
   17.1060   67.1180   31.8860 N   0  0  0  0  0  0  0  0  0  0  0  0
   16.3360   66.8410   32.5060 H   0  0  0  0  0  0  0  0  0  0  0  0
   17.3730   68.0710   32.1490 H   0  0  0  0  0  0  0  0  0  0  0  0
   16.7870   67.1610   30.9080 H   0  0  0  0  0  0  0  0  0  0  0  0
   17.8740   64.7100   31.8550 C   0  0  0  0  0  0  0  0  0  0  0  0
   19.0320   63.7850   31.6990 C   0  0  0  0  0  0  0  0  0  0  0  0
   20.0590   63.5450   32.6450 C   0  0  0  0  0  0  0  0  0  0  0  0
   20.3380   64.0380   33.9210 C   0  0  0  0  0  0  0  0  0  0  0  0
   21.4550   63.5790   34.6160 C   0  0  0  0  0  0  0  0  0  0  0  0
   22.3060   62.6530   34.0540 C   0  0  0  0  0  0  0  0  0  0  0  0
   22.0600   62.1630   32.7790 C   0  0  0  0  0  0  0  0  0  0  0  0
   20.9270   62.6230   32.0960 C   0  0  0  0  0  0  0  0  0  0  0  0
   20.4810   62.3170   30.8330 N   0  0  0  0  0  0  0  0  0  0  0  0
   20.9320   61.6870   30.1900 H   0  0  0  0  0  0  0  0  0  0  0  0
   19.3300   63.0210   30.5910 C   0  0  0  0  0  0  0  0  0  0  0  0
   19.3760   66.6180   31.0600 C   0  0  0  0  0  0  0  0  0  0  0  0
   20.1800   67.5610   31.7650 O   0  0  0  0  0  0  0  0  0  0  0  0
   21.5220   67.4030   31.7990 C   0  0  0  0  0  0  0  0  0  0  0  0
   22.1810   66.1880   31.8490 C   0  0  0  0  0  0  0  0  0  0  0  0
   23.5810   66.1540   31.8310 C   0  0  0  0  0  0  0  0  0  0  0  0
   24.2470   67.3610   31.7790 C   0  0  0  0  0  0  0  0  0  0  0  0
   23.6140   68.5500   31.7510 N   0  0  0  0  0  0  0  0  0  0  0  0
   22.2690   68.5620   31.7630 C   0  0  0  0  0  0  0  0  0  0  0  0
   24.2370   64.8580   31.8640 C   0  0  0  0  0  0  0  0  0  0  0  0
   25.3930   64.5880   32.5020 C   0  0  0  0  0  0  0  0  0  0  0  0
   26.0550   63.2800   32.5370 C   0  0  0  0  0  0  0  0  0  0  0  0
   26.9080   62.9360   31.4890 C   0  0  0  0  0  0  0  0  0  0  0  0
   27.5420   61.7070   31.5050 C   0  0  0  0  0  0  0  0  0  0  0  0
   27.3750   60.8100   32.4980 N   0  0  0  0  0  0  0  0  0  0  0  0
   26.5480   61.1510   33.5070 C   0  0  0  0  0  0  0  0  0  0  0  0
   25.8840   62.3600   33.5580 C   0  0  0  0  0  0  0  0  0  0  0  0
  1 17  1  6  0  0  0
  2  1  1  0  0  0  0
  2  4  1  0  0  0  0
  2  3  1  0  0  0  0
  5  2  1  0  0  0  0
  6  1  1  0  0  0  0
  7  6  1  0  0  0  0
  7  8  1  0  0  0  0
  8  9  1  0  0  0  0
  9 10  2  0  0  0  0
 11 10  1  0  0  0  0
 12 11  2  0  0  0  0
 13  8  2  0  0  0  0
 13 12  1  0  0  0  0
 14 13  1  0  0  0  0
 15 14  1  0  0  0  0
 16 14  1  0  0  0  0
 16  7  2  0  0  0  0
 17 18  1  0  0  0  0
 18 19  1  0  0  0  0
 19 20  2  0  0  0  0
 21 20  1  0  0  0  0
 21 25  1  0  0  0  0
 22 21  2  0  0  0  0
 23 24  2  0  0  0  0
 23 22  1  0  0  0  0
 24 19  1  0  0  0  0
 25 26  2  0  0  0  0
 26 27  1  0  0  0  0
 27 32  2  0  0  0  0
 28 29  2  0  0  0  0
 28 27  1  0  0  0  0
 29 30  1  0  0  0  0
 30 31  2  0  0  0  0
 31 32  1  0  0  0  0
M  END
>  <minimizedAffinity>
-8.19730091

$$$$

 OpenBabel12271915193D

 32 35  0  0  1  0  0  0  0  0999 V2000
   20.3700   61.7350   33.3000 C   0  0  1  0  0  0  0  0  0  0  0  0
   20.8390   60.3190   33.1510 N   0  0  0  0  0  0  0  0  0  0  0  0
   20.9260   59.8610   34.0660 H   0  0  0  0  0  0  0  0  0  0  0  0
   20.1620   59.7750   32.6080 H   0  0  0  0  0  0  0  0  0  0  0  0
   21.7300   60.2760   32.6370 H   0  0  0  0  0  0  0  0  0  0  0  0
   21.2430   62.5410   34.2870 C   0  0  0  0  0  0  0  0  0  0  0  0
   22.6930   62.2080   34.2210 C   0  0  0  0  0  0  0  0  0  0  0  0
   23.6780   62.8570   33.4360 C   0  0  0  0  0  0  0  0  0  0  0  0
   23.6530   63.9210   32.5320 C   0  0  0  0  0  0  0  0  0  0  0  0
   24.8300   64.3400   31.9160 C   0  0  0  0  0  0  0  0  0  0  0  0
   26.0260   63.7050   32.1720 C   0  0  0  0  0  0  0  0  0  0  0  0
   26.0720   62.6330   33.0510 C   0  0  0  0  0  0  0  0  0  0  0  0
   24.8840   62.2300   33.6740 C   0  0  0  0  0  0  0  0  0  0  0  0
   24.6630   61.1980   34.5530 N   0  0  0  0  0  0  0  0  0  0  0  0
   25.3600   60.5540   34.8870 H   0  0  0  0  0  0  0  0  0  0  0  0
   23.3320   61.1840   34.8870 C   0  0  0  0  0  0  0  0  0  0  0  0
   20.2980   62.3850   31.9180 C   0  0  0  0  0  0  0  0  0  0  0  0
   20.2860   63.7930   32.1450 O   0  0  0  0  0  0  0  0  0  0  0  0
   19.2160   64.5240   31.7600 C   0  0  0  0  0  0  0  0  0  0  0  0
   19.1470   65.9050   31.7700 C   0  0  0  0  0  0  0  0  0  0  0  0
   17.9970   66.5490   31.2980 C   0  0  0  0  0  0  0  0  0  0  0  0
   16.9600   65.7540   30.8530 C   0  0  0  0  0  0  0  0  0  0  0  0
   17.0090   64.4080   30.8590 N   0  0  0  0  0  0  0  0  0  0  0  0
   18.1260   63.8080   31.3090 C   0  0  0  0  0  0  0  0  0  0  0  0
   17.9700   68.0020   31.3060 C   0  0  0  0  0  0  0  0  0  0  0  0
   18.5550   68.7850   32.2340 C   0  0  0  0  0  0  0  0  0  0  0  0
   18.5300   70.2500   32.2410 C   0  0  0  0  0  0  0  0  0  0  0  0
   18.1290   70.9170   31.0830 C   0  0  0  0  0  0  0  0  0  0  0  0
   18.0980   72.2990   31.0700 C   0  0  0  0  0  0  0  0  0  0  0  0
   18.4400   73.0480   32.1380 N   0  0  0  0  0  0  0  0  0  0  0  0
   18.8260   72.3960   33.2530 C   0  0  0  0  0  0  0  0  0  0  0  0
   18.8800   71.0190   33.3380 C   0  0  0  0  0  0  0  0  0  0  0  0
  1 17  1  6  0  0  0
  1  6  1  0  0  0  0
  2  1  1  0  0  0  0
  2  3  1  0  0  0  0
  4  2  1  0  0  0  0
  5  2  1  0  0  0  0
  7  6  1  0  0  0  0
  7 16  2  0  0  0  0
  8 13  1  0  0  0  0
  8  7  1  0  0  0  0
  9  8  2  0  0  0  0
 10 11  2  0  0  0  0
 10  9  1  0  0  0  0
 11 12  1  0  0  0  0
 12 13  2  0  0  0  0
 13 14  1  0  0  0  0
 14 15  1  0  0  0  0
 14 16  1  0  0  0  0
 17 18  1  0  0  0  0
 19 20  1  0  0  0  0
 19 18  1  0  0  0  0
 21 25  1  0  0  0  0
 21 20  2  0  0  0  0
 22 23  2  0  0  0  0
 22 21  1  0  0  0  0
 23 24  1  0  0  0  0
 24 19  2  0  0  0  0
 25 26  2  0  0  0  0
 26 27  1  0  0  0  0
 27 32  2  0  0  0  0
 28 27  1  0  0  0  0
 29 28  2  0  0  0  0
 29 30  1  0  0  0  0
 30 31  2  0  0  0  0
 31 32  1  0  0  0  0
M  END
>  <minimizedAffinity>
-8.00623894

$$$$

 OpenBabel12271915193D

 32 35  0  0  1  0  0  0  0  0999 V2000
   21.7950   61.3730   33.9430 C   0  0  1  0  0  0  0  0  0  0  0  0
   21.0030   62.3620   34.7450 N   0  0  0  0  0  0  0  0  0  0  0  0
   20.0030   62.1280   34.7350 H   0  0  0  0  0  0  0  0  0  0  0  0
   21.3030   62.3480   35.7240 H   0  0  0  0  0  0  0  0  0  0  0  0
   21.1550   63.3220   34.4050 H   0  0  0  0  0  0  0  0  0  0  0  0
   21.2390   61.2010   32.5120 C   0  0  0  0  0  0  0  0  0  0  0  0
   19.7520   61.1800   32.4400 C   0  0  0  0  0  0  0  0  0  0  0  0
   18.9080   62.2410   32.0310 C   0  0  0  0  0  0  0  0  0  0  0  0
   19.1330   63.5510   31.6030 C   0  0  0  0  0  0  0  0  0  0  0  0
   18.0570   64.3630   31.2510 C   0  0  0  0  0  0  0  0  0  0  0  0
   16.7630   63.8980   31.3360 C   0  0  0  0  0  0  0  0  0  0  0  0
   16.5130   62.6070   31.7780 C   0  0  0  0  0  0  0  0  0  0  0  0
   17.6040   61.7960   32.1160 C   0  0  0  0  0  0  0  0  0  0  0  0
   17.6230   60.5090   32.5950 N   0  0  0  0  0  0  0  0  0  0  0  0
   16.8120   59.9420   32.7800 H   0  0  0  0  0  0  0  0  0  0  0  0
   18.9270   60.1330   32.7910 C   0  0  0  0  0  0  0  0  0  0  0  0
   23.2670   61.7880   33.9520 C   0  0  0  0  0  0  0  0  0  0  0  0
   23.5270   62.3450   32.6650 O   0  0  0  0  0  0  0  0  0  0  0  0
   23.8170   63.6600   32.5520 C   0  0  0  0  0  0  0  0  0  0  0  0
   22.9060   64.6550   32.2490 C   0  0  0  0  0  0  0  0  0  0  0  0
   23.3220   65.9920   32.2090 C   0  0  0  0  0  0  0  0  0  0  0  0
   24.6530   66.2530   32.4630 C   0  0  0  0  0  0  0  0  0  0  0  0
   25.5520   65.2890   32.7390 N   0  0  0  0  0  0  0  0  0  0  0  0
   25.1320   64.0110   32.7790 C   0  0  0  0  0  0  0  0  0  0  0  0
   22.3310   67.0110   31.9070 C   0  0  0  0  0  0  0  0  0  0  0  0
   21.0100   66.7900   31.7530 C   0  0  0  0  0  0  0  0  0  0  0  0
   20.0110   67.8180   31.4500 C   0  0  0  0  0  0  0  0  0  0  0  0
   19.8510   68.8780   32.3430 C   0  0  0  0  0  0  0  0  0  0  0  0
   18.9130   69.8580   32.0740 C   0  0  0  0  0  0  0  0  0  0  0  0
   18.1330   69.8420   30.9740 N   0  0  0  0  0  0  0  0  0  0  0  0
   18.2940   68.8140   30.1160 C   0  0  0  0  0  0  0  0  0  0  0  0
   19.2100   67.8020   30.3200 C   0  0  0  0  0  0  0  0  0  0  0  0
  1  6  1  6  0  0  0
  1 17  1  0  0  0  0
  1  2  1  0  0  0  0
  2  4  1  0  0  0  0
  3  2  1  0  0  0  0
  5  2  1  0  0  0  0
  7  6  1  0  0  0  0
  7 16  2  0  0  0  0
  8 13  1  0  0  0  0
  8  7  1  0  0  0  0
  9  8  2  0  0  0  0
 10 11  2  0  0  0  0
 10  9  1  0  0  0  0
 11 12  1  0  0  0  0
 12 13  2  0  0  0  0
 13 14  1  0  0  0  0
 14 15  1  0  0  0  0
 14 16  1  0  0  0  0
 18 17  1  0  0  0  0
 19 18  1  0  0  0  0
 19 24  2  0  0  0  0
 20 19  1  0  0  0  0
 21 20  2  0  0  0  0
 21 22  1  0  0  0  0
 22 23  2  0  0  0  0
 23 24  1  0  0  0  0
 25 21  1  0  0  0  0
 26 25  2  0  0  0  0
 27 26  1  0  0  0  0
 27 28  2  0  0  0  0
 29 28  1  0  0  0  0
 30 29  2  0  0  0  0
 31 32  2  0  0  0  0
 31 30  1  0  0  0  0
 32 27  1  0  0  0  0
M  END
>  <minimizedAffinity>
-7.98993397

$$$$

 OpenBabel12271915193D

 32 35  0  0  1  0  0  0  0  0999 V2000
   22.9940   64.0210   33.1380 C   0  0  1  0  0  0  0  0  0  0  0  0
   23.1330   65.1200   32.1280 N   0  0  0  0  0  0  0  0  0  0  0  0
   24.0670   65.1110   31.7010 H   0  0  0  0  0  0  0  0  0  0  0  0
   22.4570   64.9950   31.3700 H   0  0  0  0  0  0  0  0  0  0  0  0
   22.9350   66.0380   32.5490 H   0  0  0  0  0  0  0  0  0  0  0  0
   24.1270   64.0410   34.1870 C   0  0  0  0  0  0  0  0  0  0  0  0
   25.0400   62.8680   34.1130 C   0  0  0  0  0  0  0  0  0  0  0  0
   25.9890   62.5930   33.0970 C   0  0  0  0  0  0  0  0  0  0  0  0
   26.3670   63.2440   31.9200 C   0  0  0  0  0  0  0  0  0  0  0  0
   27.3720   62.7060   31.1190 C   0  0  0  0  0  0  0  0  0  0  0  0
   27.9910   61.5240   31.4610 C   0  0  0  0  0  0  0  0  0  0  0  0
   27.6190   60.8490   32.6140 C   0  0  0  0  0  0  0  0  0  0  0  0
   26.6170   61.4070   33.4180 C   0  0  0  0  0  0  0  0  0  0  0  0
   26.0600   60.9310   34.5800 N   0  0  0  0  0  0  0  0  0  0  0  0
   26.3080   60.0690   35.0380 H   0  0  0  0  0  0  0  0  0  0  0  0
   25.1030   61.8170   35.0040 C   0  0  0  0  0  0  0  0  0  0  0  0
   21.6060   64.1020   33.7760 C   0  0  0  0  0  0  0  0  0  0  0  0
   20.7330   63.3740   32.9150 O   0  0  0  0  0  0  0  0  0  0  0  0
   19.6830   64.0020   32.3400 C   0  0  0  0  0  0  0  0  0  0  0  0
   19.5990   65.3610   32.1030 C   0  0  0  0  0  0  0  0  0  0  0  0
   18.4760   65.8870   31.4530 C   0  0  0  0  0  0  0  0  0  0  0  0
   17.4800   65.0040   31.0900 C   0  0  0  0  0  0  0  0  0  0  0  0
   17.5420   63.6810   31.3350 N   0  0  0  0  0  0  0  0  0  0  0  0
   18.6340   63.1950   31.9550 C   0  0  0  0  0  0  0  0  0  0  0  0
   18.4330   67.3180   31.2020 C   0  0  0  0  0  0  0  0  0  0  0  0
   18.3100   68.2690   32.1490 C   0  0  0  0  0  0  0  0  0  0  0  0
   18.2690   69.7120   31.8970 C   0  0  0  0  0  0  0  0  0  0  0  0
   17.2200   70.2270   31.1350 C   0  0  0  0  0  0  0  0  0  0  0  0
   17.1630   71.5860   30.8870 C   0  0  0  0  0  0  0  0  0  0  0  0
   18.0840   72.4540   31.3530 N   0  0  0  0  0  0  0  0  0  0  0  0
   19.0940   71.9480   32.0890 C   0  0  0  0  0  0  0  0  0  0  0  0
   19.2140   70.6030   32.3770 C   0  0  0  0  0  0  0  0  0  0  0  0
  1 17  1  1  0  0  0
  1  6  1  0  0  0  0
  2  5  1  0  0  0  0
  2  1  1  0  0  0  0
  3  2  1  0  0  0  0
  4  2  1  0  0  0  0
  7  6  1  0  0  0  0
  7 16  2  0  0  0  0
  8 13  1  0  0  0  0
  8  7  1  0  0  0  0
  9  8  2  0  0  0  0
 10 11  2  0  0  0  0
 10  9  1  0  0  0  0
 11 12  1  0  0  0  0
 12 13  2  0  0  0  0
 13 14  1  0  0  0  0
 14 16  1  0  0  0  0
 14 15  1  0  0  0  0
 18 17  1  0  0  0  0
 19 18  1  0  0  0  0
 20 19  1  0  0  0  0
 21 20  2  0  0  0  0
 22 23  2  0  0  0  0
 22 21  1  0  0  0  0
 23 24  1  0  0  0  0
 24 19  2  0  0  0  0
 25 21  1  0  0  0  0
 25 26  2  0  0  0  0
 27 26  1  0  0  0  0
 27 32  2  0  0  0  0
 28 27  1  0  0  0  0
 29 28  2  0  0  0  0
 29 30  1  0  0  0  0
 30 31  2  0  0  0  0
 31 32  1  0  0  0  0
M  END
>  <minimizedAffinity>
-7.7545619

$$$$

 OpenBabel12271915193D

 32 35  0  0  1  0  0  0  0  0999 V2000
   22.0030   62.6100   34.1690 C   0  0  1  0  0  0  0  0  0  0  0  0
   22.2670   61.2090   34.6350 N   0  0  0  0  0  0  0  0  0  0  0  0
   23.2510   60.9530   34.4920 H   0  0  0  0  0  0  0  0  0  0  0  0
   22.0810   61.1270   35.6390 H   0  0  0  0  0  0  0  0  0  0  0  0
   21.6450   60.5380   34.1650 H   0  0  0  0  0  0  0  0  0  0  0  0
   22.4720   62.8420   32.7150 C   0  0  0  0  0  0  0  0  0  0  0  0
   23.4220   63.9770   32.5610 C   0  0  0  0  0  0  0  0  0  0  0  0
   23.0940   65.3290   32.2940 C   0  0  0  0  0  0  0  0  0  0  0  0
   21.8940   66.0140   32.0890 C   0  0  0  0  0  0  0  0  0  0  0  0
   21.9080   67.3870   31.8530 C   0  0  0  0  0  0  0  0  0  0  0  0
   23.0960   68.0830   31.7990 C   0  0  0  0  0  0  0  0  0  0  0  0
   24.3010   67.4200   31.9790 C   0  0  0  0  0  0  0  0  0  0  0  0
   24.2730   66.0420   32.2290 C   0  0  0  0  0  0  0  0  0  0  0  0
   25.3140   65.1650   32.4150 N   0  0  0  0  0  0  0  0  0  0  0  0
   26.2910   65.4040   32.3950 H   0  0  0  0  0  0  0  0  0  0  0  0
   24.7990   63.9100   32.6180 C   0  0  0  0  0  0  0  0  0  0  0  0
   20.5200   62.9290   34.3620 C   0  0  0  0  0  0  0  0  0  0  0  0
   19.8390   62.3120   33.2710 O   0  0  0  0  0  0  0  0  0  0  0  0
   18.9530   63.0290   32.5440 C   0  0  0  0  0  0  0  0  0  0  0  0
   19.0590   64.3790   32.2640 C   0  0  0  0  0  0  0  0  0  0  0  0
   18.0990   64.9990   31.4550 C   0  0  0  0  0  0  0  0  0  0  0  0
   17.0640   64.2180   30.9820 C   0  0  0  0  0  0  0  0  0  0  0  0
   16.9410   62.9070   31.2660 N   0  0  0  0  0  0  0  0  0  0  0  0
   17.8780   62.3280   32.0400 C   0  0  0  0  0  0  0  0  0  0  0  0
   18.2540   66.4150   31.1660 C   0  0  0  0  0  0  0  0  0  0  0  0
   18.1430   67.4090   32.0690 C   0  0  0  0  0  0  0  0  0  0  0  0
   18.3020   68.8370   31.7780 C   0  0  0  0  0  0  0  0  0  0  0  0
   17.7270   69.3490   30.6150 C   0  0  0  0  0  0  0  0  0  0  0  0
   17.8650   70.6940   30.3240 C   0  0  0  0  0  0  0  0  0  0  0  0
   18.5370   71.5500   31.1200 N   0  0  0  0  0  0  0  0  0  0  0  0
   19.0900   71.0460   32.2420 C   0  0  0  0  0  0  0  0  0  0  0  0
   18.9920   69.7160   32.5960 C   0  0  0  0  0  0  0  0  0  0  0  0
  1  6  1  6  0  0  0
  1 17  1  0  0  0  0
  1  2  1  0  0  0  0
  2  4  1  0  0  0  0
  3  2  1  0  0  0  0
  5  2  1  0  0  0  0
  7 16  2  0  0  0  0
  7  6  1  0  0  0  0
  8  7  1  0  0  0  0
  9  8  2  0  0  0  0
 10  9  1  0  0  0  0
 11 10  2  0  0  0  0
 11 12  1  0  0  0  0
 12 13  2  0  0  0  0
 13  8  1  0  0  0  0
 13 14  1  0  0  0  0
 14 16  1  0  0  0  0
 15 14  1  0  0  0  0
 18 17  1  0  0  0  0
 19 18  1  0  0  0  0
 20 19  1  0  0  0  0
 21 20  2  0  0  0  0
 22 23  2  0  0  0  0
 22 21  1  0  0  0  0
 23 24  1  0  0  0  0
 24 19  2  0  0  0  0
 25 21  1  0  0  0  0
 25 26  2  0  0  0  0
 27 26  1  0  0  0  0
 27 32  2  0  0  0  0
 28 27  1  0  0  0  0
 29 28  2  0  0  0  0
 29 30  1  0  0  0  0
 30 31  2  0  0  0  0
 31 32  1  0  0  0  0
M  END
>  <minimizedAffinity>
-7.7506671

$$$$

 OpenBabel12271915193D

 32 35  0  0  1  0  0  0  0  0999 V2000
   20.1990   62.6980   34.3050 C   0  0  1  0  0  0  0  0  0  0  0  0
   19.3830   62.7110   35.5620 N   0  0  0  0  0  0  0  0  0  0  0  0
   19.7330   63.4160   36.2220 H   0  0  0  0  0  0  0  0  0  0  0  0
   18.4100   62.9540   35.3530 H   0  0  0  0  0  0  0  0  0  0  0  0
   19.3650   61.7800   36.0020 H   0  0  0  0  0  0  0  0  0  0  0  0
   21.7100   62.5480   34.5880 C   0  0  0  0  0  0  0  0  0  0  0  0
   22.5790   63.3140   33.6520 C   0  0  0  0  0  0  0  0  0  0  0  0
   23.9300   63.0380   33.3300 C   0  0  0  0  0  0  0  0  0  0  0  0
   24.8450   62.0630   33.7350 C   0  0  0  0  0  0  0  0  0  0  0  0
   26.1350   62.0560   33.2090 C   0  0  0  0  0  0  0  0  0  0  0  0
   26.5330   63.0150   32.3030 C   0  0  0  0  0  0  0  0  0  0  0  0
   25.6480   64.0050   31.9010 C   0  0  0  0  0  0  0  0  0  0  0  0
   24.3500   63.9930   32.4270 C   0  0  0  0  0  0  0  0  0  0  0  0
   23.3100   64.8620   32.2110 N   0  0  0  0  0  0  0  0  0  0  0  0
   23.3380   65.6720   31.6140 H   0  0  0  0  0  0  0  0  0  0  0  0
   22.2320   64.4510   32.9530 C   0  0  0  0  0  0  0  0  0  0  0  0
   19.6680   61.6050   33.3760 C   0  0  0  0  0  0  0  0  0  0  0  0
   19.5760   62.1970   32.0820 O   0  0  0  0  0  0  0  0  0  0  0  0
   18.6240   63.1240   31.8370 C   0  0  0  0  0  0  0  0  0  0  0  0
   18.8560   64.4720   31.6320 C   0  0  0  0  0  0  0  0  0  0  0  0
   17.7870   65.3260   31.3360 C   0  0  0  0  0  0  0  0  0  0  0  0
   16.5250   64.7700   31.2800 C   0  0  0  0  0  0  0  0  0  0  0  0
   16.2860   63.4630   31.4980 N   0  0  0  0  0  0  0  0  0  0  0  0
   17.3280   62.6570   31.7740 C   0  0  0  0  0  0  0  0  0  0  0  0
   18.0730   66.7320   31.1080 C   0  0  0  0  0  0  0  0  0  0  0  0
   17.6520   67.7480   31.8870 C   0  0  0  0  0  0  0  0  0  0  0  0
   17.9420   69.1660   31.6580 C   0  0  0  0  0  0  0  0  0  0  0  0
   18.7690   69.8330   32.5610 C   0  0  0  0  0  0  0  0  0  0  0  0
   19.0550   71.1710   32.3610 C   0  0  0  0  0  0  0  0  0  0  0  0
   18.5680   71.8760   31.3200 N   0  0  0  0  0  0  0  0  0  0  0  0
   17.7690   71.2230   30.4510 C   0  0  0  0  0  0  0  0  0  0  0  0
   17.4420   69.8890   30.5880 C   0  0  0  0  0  0  0  0  0  0  0  0
  1 17  1  6  0  0  0
  1  6  1  0  0  0  0
  1  2  1  0  0  0  0
  2  5  1  0  0  0  0
  2  3  1  0  0  0  0
  4  2  1  0  0  0  0
  7  6  1  0  0  0  0
  8  7  1  0  0  0  0
  8  9  1  0  0  0  0
 10  9  2  0  0  0  0
 11 10  1  0  0  0  0
 12 11  2  0  0  0  0
 12 13  1  0  0  0  0
 13  8  2  0  0  0  0
 14 13  1  0  0  0  0
 14 16  1  0  0  0  0
 15 14  1  0  0  0  0
 16  7  2  0  0  0  0
 18 17  1  0  0  0  0
 19 18  1  0  0  0  0
 20 19  2  0  0  0  0
 21 20  1  0  0  0  0
 22 21  2  0  0  0  0
 22 23  1  0  0  0  0
 23 24  2  0  0  0  0
 24 19  1  0  0  0  0
 25 21  1  0  0  0  0
 25 26  2  0  0  0  0
 27 26  1  0  0  0  0
 27 28  2  0  0  0  0
 29 28  1  0  0  0  0
 30 29  2  0  0  0  0
 31 32  2  0  0  0  0
 31 30  1  0  0  0  0
 32 27  1  0  0  0  0
M  END
>  <minimizedAffinity>
-7.74296045

$$$$

 OpenBabel12271915193D

 32 35  0  0  1  0  0  0  0  0999 V2000
   19.7930   64.0080   32.6950 C   0  0  1  0  0  0  0  0  0  0  0  0
   19.2540   65.3930   32.5000 N   0  0  0  0  0  0  0  0  0  0  0  0
   19.9910   66.0970   32.6280 H   0  0  0  0  0  0  0  0  0  0  0  0
   18.8960   65.5060   31.5470 H   0  0  0  0  0  0  0  0  0  0  0  0
   18.4630   65.5760   33.1340 H   0  0  0  0  0  0  0  0  0  0  0  0
   20.5360   63.8520   34.0400 C   0  0  0  0  0  0  0  0  0  0  0  0
   21.8740   63.2090   33.9200 C   0  0  0  0  0  0  0  0  0  0  0  0
   23.0540   63.7960   33.4020 C   0  0  0  0  0  0  0  0  0  0  0  0
   23.3600   65.0490   32.8650 C   0  0  0  0  0  0  0  0  0  0  0  0
   24.6580   65.3270   32.4430 C   0  0  0  0  0  0  0  0  0  0  0  0
   25.6490   64.3740   32.5290 C   0  0  0  0  0  0  0  0  0  0  0  0
   25.3640   63.1160   33.0400 C   0  0  0  0  0  0  0  0  0  0  0  0
   24.0590   62.8530   33.4730 C   0  0  0  0  0  0  0  0  0  0  0  0
   23.5230   61.6980   33.9880 N   0  0  0  0  0  0  0  0  0  0  0  0
   24.0210   60.8350   34.1310 H   0  0  0  0  0  0  0  0  0  0  0  0
   22.1960   61.9120   34.2610 C   0  0  0  0  0  0  0  0  0  0  0  0
   18.6520   63.0020   32.5380 C   0  0  0  0  0  0  0  0  0  0  0  0
   19.2570   61.7820   32.1140 O   0  0  0  0  0  0  0  0  0  0  0  0
   18.6780   60.6030   32.4290 C   0  0  0  0  0  0  0  0  0  0  0  0
   17.3180   60.3550   32.4220 C   0  0  0  0  0  0  0  0  0  0  0  0
   16.8410   59.0720   32.7210 C   0  0  0  0  0  0  0  0  0  0  0  0
   17.7740   58.1030   33.0300 C   0  0  0  0  0  0  0  0  0  0  0  0
   19.1000   58.3400   33.0600 N   0  0  0  0  0  0  0  0  0  0  0  0
   19.5380   59.5770   32.7620 C   0  0  0  0  0  0  0  0  0  0  0  0
   15.4070   58.8460   32.6840 C   0  0  0  0  0  0  0  0  0  0  0  0
   14.4670   59.8120   32.6940 C   0  0  0  0  0  0  0  0  0  0  0  0
   13.0200   59.5840   32.6550 C   0  0  0  0  0  0  0  0  0  0  0  0
   12.2060   60.3050   33.5290 C   0  0  0  0  0  0  0  0  0  0  0  0
   10.8380   60.1040   33.5070 C   0  0  0  0  0  0  0  0  0  0  0  0
   10.2400   59.2330   32.6690 N   0  0  0  0  0  0  0  0  0  0  0  0
   11.0340   58.5400   31.8270 C   0  0  0  0  0  0  0  0  0  0  0  0
   12.4060   58.6900   31.7940 C   0  0  0  0  0  0  0  0  0  0  0  0
  1 17  1  1  0  0  0
  1  6  1  0  0  0  0
  2  3  1  0  0  0  0
  2  1  1  0  0  0  0
  2  5  1  0  0  0  0
  4  2  1  0  0  0  0
  7  6  1  0  0  0  0
  7 16  2  0  0  0  0
  8 13  1  0  0  0  0
  8  7  1  0  0  0  0
  9  8  2  0  0  0  0
 10 11  2  0  0  0  0
 10  9  1  0  0  0  0
 11 12  1  0  0  0  0
 12 13  2  0  0  0  0
 13 14  1  0  0  0  0
 14 15  1  0  0  0  0
 14 16  1  0  0  0  0
 18 19  1  0  0  0  0
 18 17  1  0  0  0  0
 19 24  1  0  0  0  0
 20 19  2  0  0  0  0
 20 21  1  0  0  0  0
 21 22  2  0  0  0  0
 22 23  1  0  0  0  0
 24 23  2  0  0  0  0
 25 26  2  0  0  0  0
 25 21  1  0  0  0  0
 27 26  1  0  0  0  0
 27 28  2  0  0  0  0
 29 28  1  0  0  0  0
 30 29  2  0  0  0  0
 31 30  1  0  0  0  0
 32 31  2  0  0  0  0
 32 27  1  0  0  0  0
M  END
>  <minimizedAffinity>
-7.70090866

$$$$
