
 OpenBabel12271915153D

 22 23  0  0  1  0  0  0  0  0999 V2000
   23.7990   66.4080   31.4250 C   0  0  2  0  0  0  0  0  0  0  0  0
   22.7710   66.2010   32.5600 C   0  0  2  0  0  0  0  0  0  0  0  0
   23.2170   65.0570   33.3240 O   0  0  0  0  0  0  0  0  0  0  0  0
   24.5960   64.8700   33.0320 C   0  0  2  0  0  0  0  0  0  0  0  0
   24.7330   65.2210   31.5550 C   0  0  0  0  0  0  0  0  0  0  0  0
   25.0510   63.4960   33.4320 C   0  0  0  0  0  0  0  0  0  0  0  0
   24.3250   62.7990   34.4090 C   0  0  0  0  0  0  0  0  0  0  0  0
   24.7060   61.5010   34.7740 C   0  0  0  0  0  0  0  0  0  0  0  0
   23.8620   60.7870   35.7780 C   0  0  0  0  0  0  0  0  0  0  0  0
   25.8360   60.9980   34.1870 C   0  0  0  0  0  0  0  0  0  0  0  0
   26.5830   61.6420   33.2710 N   0  0  0  0  0  0  0  0  0  0  0  0
   26.1610   62.8750   32.9010 C   0  0  0  0  0  0  0  0  0  0  0  0
   26.3340   59.7680   34.5090 O   0  0  0  0  0  0  0  0  0  0  0  0
   26.1770   59.6690   35.4480 H   0  0  0  0  0  0  0  0  0  0  0  0
   24.5590   67.6140   31.6260 O   0  0  0  0  0  0  0  0  0  0  0  0
   25.2790   67.4270   32.2410 H   0  0  0  0  0  0  0  0  0  0  0  0
   21.3100   66.0500   32.0740 C   0  0  0  0  0  0  0  0  0  0  0  0
   20.6570   67.2580   31.8560 O   0  0  0  0  0  0  0  0  0  0  0  0
   19.1110   67.1210   31.3470 P   0  0  0  0  0  0  0  0  0  0  0  0
   18.3360   67.9020   32.3900 O   0  0  0  0  0  0  0  0  0  0  0  0
   19.1010   67.7270   29.9680 O   0  0  0  0  0  0  0  0  0  0  0  0
   18.8420   65.6230   31.4030 O   0  0  0  0  0  0  0  0  0  0  0  0
  1  5  1  0  0  0  0
  1 15  1  1  0  0  0
  1  2  1  0  0  0  0
  2 17  1  6  0  0  0
  2  3  1  0  0  0  0
  4  3  1  0  0  0  0
  4  6  1  6  0  0  0
  5  4  1  0  0  0  0
  6  7  1  0  0  0  0
  7  8  2  0  0  0  0
  8  9  1  0  0  0  0
 10 13  1  0  0  0  0
 10  8  1  0  0  0  0
 11 10  2  0  0  0  0
 12 11  1  0  0  0  0
 12  6  2  0  0  0  0
 13 14  1  0  0  0  0
 15 16  1  0  0  0  0
 18 17  1  0  0  0  0
 19 22  1  0  0  0  0
 19 18  1  0  0  0  0
 19 20  1  0  0  0  0
 21 19  2  0  0  0  0
M  END
>  <minimizedAffinity>
-7.59929752

$$$$

 OpenBabel12271915153D

 22 23  0  0  1  0  0  0  0  0999 V2000
   20.2190   64.3470   32.5400 C   0  0  2  0  0  0  0  0  0  0  0  0
   19.8440   63.7250   33.9040 C   0  0  2  0  0  0  0  0  0  0  0  0
   21.0450   63.1180   34.4310 O   0  0  0  0  0  0  0  0  0  0  0  0
   22.1460   63.7050   33.7470 C   0  0  2  0  0  0  0  0  0  0  0  0
   21.6540   63.9100   32.3200 C   0  0  0  0  0  0  0  0  0  0  0  0
   23.3860   62.8750   33.9090 C   0  0  0  0  0  0  0  0  0  0  0  0
   24.4500   63.0630   33.0140 C   0  0  0  0  0  0  0  0  0  0  0  0
   25.6330   62.3270   33.1650 C   0  0  0  0  0  0  0  0  0  0  0  0
   26.7510   62.6100   32.2170 C   0  0  0  0  0  0  0  0  0  0  0  0
   25.6590   61.3930   34.1660 C   0  0  0  0  0  0  0  0  0  0  0  0
   24.6520   61.1540   35.0260 N   0  0  0  0  0  0  0  0  0  0  0  0
   23.5410   61.9160   34.8870 C   0  0  0  0  0  0  0  0  0  0  0  0
   26.7360   60.5790   34.3690 O   0  0  0  0  0  0  0  0  0  0  0  0
   27.0710   60.3780   33.4950 H   0  0  0  0  0  0  0  0  0  0  0  0
   20.1820   65.7860   32.5970 O   0  0  0  0  0  0  0  0  0  0  0  0
   21.0140   66.1020   32.9700 H   0  0  0  0  0  0  0  0  0  0  0  0
   18.6600   62.7300   33.8420 C   0  0  0  0  0  0  0  0  0  0  0  0
   19.0420   61.3930   33.8470 O   0  0  0  0  0  0  0  0  0  0  0  0
   18.8210   60.6110   32.4310 P   0  0  0  0  0  0  0  0  0  0  0  0
   18.7760   59.1540   32.8480 O   0  0  0  0  0  0  0  0  0  0  0  0
   17.5240   61.1510   31.8870 O   0  0  0  0  0  0  0  0  0  0  0  0
   20.0640   60.9620   31.6250 O   0  0  0  0  0  0  0  0  0  0  0  0
  1 15  1  1  0  0  0
  1  2  1  0  0  0  0
  2 17  1  6  0  0  0
  2  3  1  0  0  0  0
  4  6  1  6  0  0  0
  4  3  1  0  0  0  0
  5  1  1  0  0  0  0
  5  4  1  0  0  0  0
  6 12  2  0  0  0  0
  7  8  2  0  0  0  0
  7  6  1  0  0  0  0
  8 10  1  0  0  0  0
  9  8  1  0  0  0  0
 10 13  1  0  0  0  0
 10 11  2  0  0  0  0
 12 11  1  0  0  0  0
 14 13  1  0  0  0  0
 15 16  1  0  0  0  0
 17 18  1  0  0  0  0
 19 20  1  0  0  0  0
 19 18  1  0  0  0  0
 21 19  1  0  0  0  0
 22 19  2  0  0  0  0
M  END
>  <minimizedAffinity>
-7.42880869

$$$$

 OpenBabel12271915153D

 22 23  0  0  1  0  0  0  0  0999 V2000
   22.8220   66.4430   31.7370 C   0  0  2  0  0  0  0  0  0  0  0  0
   22.0170   65.6120   32.7620 C   0  0  2  0  0  0  0  0  0  0  0  0
   22.8760   64.5310   33.1900 O   0  0  0  0  0  0  0  0  0  0  0  0
   24.2120   64.9070   32.8740 C   0  0  2  0  0  0  0  0  0  0  0  0
   24.1030   65.6540   31.5500 C   0  0  0  0  0  0  0  0  0  0  0  0
   25.1250   63.7160   32.8900 C   0  0  0  0  0  0  0  0  0  0  0  0
   26.0330   63.5430   31.8350 C   0  0  0  0  0  0  0  0  0  0  0  0
   26.9230   62.4590   31.8450 C   0  0  0  0  0  0  0  0  0  0  0  0
   27.9040   62.3590   30.7240 C   0  0  0  0  0  0  0  0  0  0  0  0
   26.8060   61.5710   32.8790 C   0  0  0  0  0  0  0  0  0  0  0  0
   25.9290   61.6760   33.8940 N   0  0  0  0  0  0  0  0  0  0  0  0
   25.1170   62.7610   33.8840 C   0  0  0  0  0  0  0  0  0  0  0  0
   27.5790   60.4480   32.9610 O   0  0  0  0  0  0  0  0  0  0  0  0
   27.6860   60.1470   32.0580 H   0  0  0  0  0  0  0  0  0  0  0  0
   23.1550   67.7400   32.2670 O   0  0  0  0  0  0  0  0  0  0  0  0
   23.9440   67.6560   32.8170 H   0  0  0  0  0  0  0  0  0  0  0  0
   20.6530   65.1050   32.2350 C   0  0  0  0  0  0  0  0  0  0  0  0
   20.0900   64.0920   33.0020 O   0  0  0  0  0  0  0  0  0  0  0  0
   19.5220   62.8210   32.1500 P   0  0  0  0  0  0  0  0  0  0  0  0
   20.6060   62.5890   31.1150 O   0  0  0  0  0  0  0  0  0  0  0  0
   19.3670   61.7140   33.1600 O   0  0  0  0  0  0  0  0  0  0  0  0
   18.2240   63.3390   31.5460 O   0  0  0  0  0  0  0  0  0  0  0  0
  1 15  1  1  0  0  0
  1  2  1  0  0  0  0
  2 17  1  6  0  0  0
  2  3  1  0  0  0  0
  4  6  1  6  0  0  0
  4  3  1  0  0  0  0
  5  1  1  0  0  0  0
  5  4  1  0  0  0  0
  6 12  2  0  0  0  0
  7  8  2  0  0  0  0
  7  6  1  0  0  0  0
  8 10  1  0  0  0  0
  9  8  1  0  0  0  0
 10 13  1  0  0  0  0
 10 11  2  0  0  0  0
 12 11  1  0  0  0  0
 14 13  1  0  0  0  0
 15 16  1  0  0  0  0
 17 18  1  0  0  0  0
 19 18  1  0  0  0  0
 19 21  1  0  0  0  0
 20 19  2  0  0  0  0
 22 19  1  0  0  0  0
M  END
>  <minimizedAffinity>
-7.36382294

$$$$

 OpenBabel12271915153D

 22 23  0  0  1  0  0  0  0  0999 V2000
   21.0180   61.5630   31.7980 C   0  0  2  0  0  0  0  0  0  0  0  0
   21.2220   61.9150   33.2880 C   0  0  2  0  0  0  0  0  0  0  0  0
   20.9530   63.3300   33.4230 O   0  0  0  0  0  0  0  0  0  0  0  0
   20.1920   63.7220   32.2860 C   0  0  2  0  0  0  0  0  0  0  0  0
   20.7620   62.9020   31.1350 C   0  0  0  0  0  0  0  0  0  0  0  0
   20.2130   65.2130   32.1120 C   0  0  0  0  0  0  0  0  0  0  0  0
   21.4470   65.8800   32.1170 C   0  0  0  0  0  0  0  0  0  0  0  0
   21.4960   67.2670   31.9190 C   0  0  0  0  0  0  0  0  0  0  0  0
   22.8410   67.9130   31.8780 C   0  0  0  0  0  0  0  0  0  0  0  0
   20.2980   67.9180   31.7960 C   0  0  0  0  0  0  0  0  0  0  0  0
   19.0900   67.3260   31.8200 N   0  0  0  0  0  0  0  0  0  0  0  0
   19.0770   65.9790   31.9620 C   0  0  0  0  0  0  0  0  0  0  0  0
   20.2220   69.2750   31.6590 O   0  0  0  0  0  0  0  0  0  0  0  0
   20.9230   69.6250   32.2090 H   0  0  0  0  0  0  0  0  0  0  0  0
   19.8570   60.7310   31.6140 O   0  0  0  0  0  0  0  0  0  0  0  0
   19.0740   61.2950   31.5870 H   0  0  0  0  0  0  0  0  0  0  0  0
   22.6100   61.5250   33.8490 C   0  0  0  0  0  0  0  0  0  0  0  0
   23.6760   61.9250   33.0510 O   0  0  0  0  0  0  0  0  0  0  0  0
   25.0770   62.1730   33.8520 P   0  0  0  0  0  0  0  0  0  0  0  0
   24.8380   63.4930   34.5600 O   0  0  0  0  0  0  0  0  0  0  0  0
   25.2190   60.9840   34.7650 O   0  0  0  0  0  0  0  0  0  0  0  0
   26.1160   62.2720   32.7440 O   0  0  0  0  0  0  0  0  0  0  0  0
  1 15  1  1  0  0  0
  1  2  1  0  0  0  0
  2  3  1  0  0  0  0
  2 17  1  6  0  0  0
  4  6  1  6  0  0  0
  4  3  1  0  0  0  0
  5  1  1  0  0  0  0
  5  4  1  0  0  0  0
  6  7  1  0  0  0  0
  8  7  2  0  0  0  0
  9  8  1  0  0  0  0
 10 11  2  0  0  0  0
 10  8  1  0  0  0  0
 11 12  1  0  0  0  0
 12  6  2  0  0  0  0
 13 10  1  0  0  0  0
 13 14  1  0  0  0  0
 16 15  1  0  0  0  0
 18 17  1  0  0  0  0
 18 19  1  0  0  0  0
 19 20  1  0  0  0  0
 19 21  1  0  0  0  0
 22 19  2  0  0  0  0
M  END
>  <minimizedAffinity>
-7.32859516

$$$$

 OpenBabel12271915153D

 22 23  0  0  1  0  0  0  0  0999 V2000
   21.2690   60.9310   32.3790 C   0  0  2  0  0  0  0  0  0  0  0  0
   21.6340   61.7520   33.6360 C   0  0  2  0  0  0  0  0  0  0  0  0
   20.9230   63.0080   33.5360 O   0  0  0  0  0  0  0  0  0  0  0  0
   19.8610   62.8140   32.6090 C   0  0  2  0  0  0  0  0  0  0  0  0
   20.4350   61.8850   31.5470 C   0  0  0  0  0  0  0  0  0  0  0  0
   19.3260   64.1300   32.1210 C   0  0  0  0  0  0  0  0  0  0  0  0
   20.1320   65.2720   32.2290 C   0  0  0  0  0  0  0  0  0  0  0  0
   19.6710   66.5050   31.7470 C   0  0  0  0  0  0  0  0  0  0  0  0
   20.5950   67.6740   31.8380 C   0  0  0  0  0  0  0  0  0  0  0  0
   18.3980   66.5370   31.2450 C   0  0  0  0  0  0  0  0  0  0  0  0
   17.5750   65.4760   31.1530 N   0  0  0  0  0  0  0  0  0  0  0  0
   18.0680   64.2880   31.5800 C   0  0  0  0  0  0  0  0  0  0  0  0
   17.8230   67.6940   30.8020 O   0  0  0  0  0  0  0  0  0  0  0  0
   18.1400   68.3780   31.3920 H   0  0  0  0  0  0  0  0  0  0  0  0
   20.4580   59.7910   32.7200 O   0  0  0  0  0  0  0  0  0  0  0  0
   19.5390   60.0780   32.7980 H   0  0  0  0  0  0  0  0  0  0  0  0
   23.1540   61.9530   33.8430 C   0  0  0  0  0  0  0  0  0  0  0  0
   23.8500   62.2610   32.6800 O   0  0  0  0  0  0  0  0  0  0  0  0
   25.2440   63.0790   32.9100 P   0  0  0  0  0  0  0  0  0  0  0  0
   25.0290   63.7560   34.2490 O   0  0  0  0  0  0  0  0  0  0  0  0
   26.3190   62.0230   32.9020 O   0  0  0  0  0  0  0  0  0  0  0  0
   25.2850   64.0600   31.7470 O   0  0  0  0  0  0  0  0  0  0  0  0
  1 15  1  1  0  0  0
  1  2  1  0  0  0  0
  2 17  1  6  0  0  0
  3  2  1  0  0  0  0
  4  6  1  6  0  0  0
  4  3  1  0  0  0  0
  5  1  1  0  0  0  0
  5  4  1  0  0  0  0
  6  7  1  0  0  0  0
  8  9  1  0  0  0  0
  8  7  2  0  0  0  0
 10  8  1  0  0  0  0
 11 10  2  0  0  0  0
 11 12  1  0  0  0  0
 12  6  2  0  0  0  0
 13 10  1  0  0  0  0
 13 14  1  0  0  0  0
 15 16  1  0  0  0  0
 18 19  1  0  0  0  0
 18 17  1  0  0  0  0
 19 20  1  0  0  0  0
 21 19  1  0  0  0  0
 22 19  2  0  0  0  0
M  END
>  <minimizedAffinity>
-7.32804537

$$$$

 OpenBabel12271915153D

 22 23  0  0  1  0  0  0  0  0999 V2000
   23.2800   66.2330   31.5820 C   0  0  2  0  0  0  0  0  0  0  0  0
   22.1920   65.8570   32.6130 C   0  0  2  0  0  0  0  0  0  0  0  0
   22.7060   64.7400   33.3740 O   0  0  0  0  0  0  0  0  0  0  0  0
   24.1180   64.7300   33.2000 C   0  0  2  0  0  0  0  0  0  0  0  0
   24.3370   65.1600   31.7550 C   0  0  0  0  0  0  0  0  0  0  0  0
   24.7000   63.4020   33.5930 C   0  0  0  0  0  0  0  0  0  0  0  0
   24.0390   62.6310   34.5610 C   0  0  0  0  0  0  0  0  0  0  0  0
   24.5410   61.3720   34.9180 C   0  0  0  0  0  0  0  0  0  0  0  0
   23.7640   60.5730   35.9120 C   0  0  0  0  0  0  0  0  0  0  0  0
   25.7160   60.9850   34.3330 C   0  0  0  0  0  0  0  0  0  0  0  0
   26.4030   61.7040   33.4270 N   0  0  0  0  0  0  0  0  0  0  0  0
   25.8670   62.8940   33.0640 C   0  0  0  0  0  0  0  0  0  0  0  0
   26.3280   59.8050   34.6490 O   0  0  0  0  0  0  0  0  0  0  0  0
   26.1770   59.6840   35.5860 H   0  0  0  0  0  0  0  0  0  0  0  0
   23.8690   67.5110   31.8910 O   0  0  0  0  0  0  0  0  0  0  0  0
   24.5510   67.3820   32.5630 H   0  0  0  0  0  0  0  0  0  0  0  0
   20.8060   65.5570   31.9910 C   0  0  0  0  0  0  0  0  0  0  0  0
   19.9100   64.9560   32.8670 O   0  0  0  0  0  0  0  0  0  0  0  0
   19.4190   63.4620   32.4280 P   0  0  0  0  0  0  0  0  0  0  0  0
   19.9100   62.5910   33.5680 O   0  0  0  0  0  0  0  0  0  0  0  0
   17.9200   63.5640   32.3140 O   0  0  0  0  0  0  0  0  0  0  0  0
   20.1570   63.2060   31.1220 O   0  0  0  0  0  0  0  0  0  0  0  0
  1  5  1  0  0  0  0
  1 15  1  1  0  0  0
  1  2  1  0  0  0  0
  2 17  1  6  0  0  0
  2  3  1  0  0  0  0
  4  3  1  0  0  0  0
  4  6  1  6  0  0  0
  5  4  1  0  0  0  0
  6  7  1  0  0  0  0
  7  8  2  0  0  0  0
  8  9  1  0  0  0  0
 10 13  1  0  0  0  0
 10  8  1  0  0  0  0
 11 10  2  0  0  0  0
 12 11  1  0  0  0  0
 12  6  2  0  0  0  0
 13 14  1  0  0  0  0
 15 16  1  0  0  0  0
 17 18  1  0  0  0  0
 19 18  1  0  0  0  0
 19 20  1  0  0  0  0
 21 19  1  0  0  0  0
 22 19  2  0  0  0  0
M  END
>  <minimizedAffinity>
-7.27577162

$$$$

 OpenBabel12271915153D

 22 23  0  0  1  0  0  0  0  0999 V2000
   21.7510   61.7020   34.3370 C   0  0  2  0  0  0  0  0  0  0  0  0
   21.5510   61.5020   32.8180 C   0  0  2  0  0  0  0  0  0  0  0  0
   22.1340   62.6530   32.1650 O   0  0  0  0  0  0  0  0  0  0  0  0
   23.0280   63.2530   33.0950 C   0  0  2  0  0  0  0  0  0  0  0  0
   22.3500   63.0900   34.4500 C   0  0  0  0  0  0  0  0  0  0  0  0
   23.3660   64.6580   32.6880 C   0  0  0  0  0  0  0  0  0  0  0  0
   22.3300   65.5190   32.2960 C   0  0  0  0  0  0  0  0  0  0  0  0
   22.6150   66.8470   31.9470 C   0  0  0  0  0  0  0  0  0  0  0  0
   21.4650   67.7320   31.5940 C   0  0  0  0  0  0  0  0  0  0  0  0
   23.9320   67.2180   31.9440 C   0  0  0  0  0  0  0  0  0  0  0  0
   24.9620   66.4190   32.2780 N   0  0  0  0  0  0  0  0  0  0  0  0
   24.6510   65.1570   32.6600 C   0  0  0  0  0  0  0  0  0  0  0  0
   24.3320   68.4680   31.5650 O   0  0  0  0  0  0  0  0  0  0  0  0
   23.7450   68.7160   30.8500 H   0  0  0  0  0  0  0  0  0  0  0  0
   22.6950   60.7510   34.8660 O   0  0  0  0  0  0  0  0  0  0  0  0
   23.5880   61.0810   34.7060 H   0  0  0  0  0  0  0  0  0  0  0  0
   20.0800   61.2710   32.3970 C   0  0  0  0  0  0  0  0  0  0  0  0
   19.5690   62.2530   31.5570 O   0  0  0  0  0  0  0  0  0  0  0  0
   18.3870   63.1700   32.2120 P   0  0  0  0  0  0  0  0  0  0  0  0
   18.9120   64.5820   32.0380 O   0  0  0  0  0  0  0  0  0  0  0  0
   17.1550   62.8500   31.4060 O   0  0  0  0  0  0  0  0  0  0  0  0
   18.3480   62.7250   33.6670 O   0  0  0  0  0  0  0  0  0  0  0  0
  1  5  1  0  0  0  0
  1 15  1  6  0  0  0
  2 17  1  1  0  0  0
  2  1  1  0  0  0  0
  3  2  1  0  0  0  0
  3  4  1  0  0  0  0
  4  6  1  6  0  0  0
  4  5  1  0  0  0  0
  7  6  1  0  0  0  0
  8  7  2  0  0  0  0
  9  8  1  0  0  0  0
 10  8  1  0  0  0  0
 10 11  2  0  0  0  0
 11 12  1  0  0  0  0
 12  6  2  0  0  0  0
 13 10  1  0  0  0  0
 14 13  1  0  0  0  0
 16 15  1  0  0  0  0
 18 19  1  0  0  0  0
 18 17  1  0  0  0  0
 19 22  1  0  0  0  0
 20 19  1  0  0  0  0
 21 19  2  0  0  0  0
M  END
>  <minimizedAffinity>
-7.25036955

$$$$

 OpenBabel12271915153D

 22 23  0  0  1  0  0  0  0  0999 V2000
   20.1600   64.2090   32.5760 C   0  0  2  0  0  0  0  0  0  0  0  0
   19.7840   63.5860   33.9390 C   0  0  2  0  0  0  0  0  0  0  0  0
   20.9890   62.9900   34.4720 O   0  0  0  0  0  0  0  0  0  0  0  0
   22.0870   63.5870   33.7920 C   0  0  2  0  0  0  0  0  0  0  0  0
   21.6000   63.7850   32.3630 C   0  0  0  0  0  0  0  0  0  0  0  0
   23.3340   62.7670   33.9610 C   0  0  0  0  0  0  0  0  0  0  0  0
   24.4090   62.9800   33.0850 C   0  0  0  0  0  0  0  0  0  0  0  0
   25.5980   62.2550   33.2440 C   0  0  0  0  0  0  0  0  0  0  0  0
   26.7270   62.5650   32.3170 C   0  0  0  0  0  0  0  0  0  0  0  0
   25.6190   61.3070   34.2300 C   0  0  0  0  0  0  0  0  0  0  0  0
   24.6020   61.0440   35.0720 N   0  0  0  0  0  0  0  0  0  0  0  0
   23.4840   61.7960   34.9260 C   0  0  0  0  0  0  0  0  0  0  0  0
   26.7020   60.5010   34.4390 O   0  0  0  0  0  0  0  0  0  0  0  0
   27.0520   60.3170   33.5670 H   0  0  0  0  0  0  0  0  0  0  0  0
   20.1090   65.6480   32.6300 O   0  0  0  0  0  0  0  0  0  0  0  0
   20.9380   65.9720   33.0060 H   0  0  0  0  0  0  0  0  0  0  0  0
   18.6090   62.5800   33.8750 C   0  0  0  0  0  0  0  0  0  0  0  0
   18.2620   62.1950   32.5850 O   0  0  0  0  0  0  0  0  0  0  0  0
   16.8520   61.3810   32.4670 P   0  0  0  0  0  0  0  0  0  0  0  0
   16.2890   61.8600   31.1440 O   0  0  0  0  0  0  0  0  0  0  0  0
   17.2400   59.9260   32.4980 O   0  0  0  0  0  0  0  0  0  0  0  0
   16.0510   61.8680   33.6660 O   0  0  0  0  0  0  0  0  0  0  0  0
  1 15  1  1  0  0  0
  1  2  1  0  0  0  0
  2 17  1  6  0  0  0
  2  3  1  0  0  0  0
  4  6  1  6  0  0  0
  4  3  1  0  0  0  0
  5  1  1  0  0  0  0
  5  4  1  0  0  0  0
  6 12  2  0  0  0  0
  7  8  2  0  0  0  0
  7  6  1  0  0  0  0
  8 10  1  0  0  0  0
  9  8  1  0  0  0  0
 10 13  1  0  0  0  0
 10 11  2  0  0  0  0
 12 11  1  0  0  0  0
 14 13  1  0  0  0  0
 15 16  1  0  0  0  0
 18 17  1  0  0  0  0
 19 21  1  0  0  0  0
 19 18  1  0  0  0  0
 19 22  1  0  0  0  0
 20 19  2  0  0  0  0
M  END
>  <minimizedAffinity>
-7.14917469

$$$$

 OpenBabel12271915153D

 22 23  0  0  1  0  0  0  0  0999 V2000
   18.2610   62.6910   32.3240 C   0  0  2  0  0  0  0  0  0  0  0  0
   19.0490   63.7070   31.4680 C   0  0  2  0  0  0  0  0  0  0  0  0
   20.4290   63.6310   31.8940 O   0  0  0  0  0  0  0  0  0  0  0  0
   20.5910   62.3880   32.5660 C   0  0  2  0  0  0  0  0  0  0  0  0
   19.2830   62.1780   33.3190 C   0  0  0  0  0  0  0  0  0  0  0  0
   21.8420   62.3830   33.3970 C   0  0  0  0  0  0  0  0  0  0  0  0
   22.6730   63.5140   33.3780 C   0  0  0  0  0  0  0  0  0  0  0  0
   23.8270   63.5500   34.1720 C   0  0  0  0  0  0  0  0  0  0  0  0
   24.6410   64.8010   34.1540 C   0  0  0  0  0  0  0  0  0  0  0  0
   24.1210   62.4220   34.8900 C   0  0  0  0  0  0  0  0  0  0  0  0
   23.3740   61.3030   34.9130 N   0  0  0  0  0  0  0  0  0  0  0  0
   22.2380   61.3170   34.1750 C   0  0  0  0  0  0  0  0  0  0  0  0
   25.2500   62.3220   35.6520 O   0  0  0  0  0  0  0  0  0  0  0  0
   25.9280   62.7900   35.1650 H   0  0  0  0  0  0  0  0  0  0  0  0
   17.8020   61.5840   31.5260 O   0  0  0  0  0  0  0  0  0  0  0  0
   18.5220   60.9480   31.4370 H   0  0  0  0  0  0  0  0  0  0  0  0
   18.4950   65.1510   31.5250 C   0  0  0  0  0  0  0  0  0  0  0  0
   19.3180   66.0480   32.1960 O   0  0  0  0  0  0  0  0  0  0  0  0
   19.3330   67.5590   31.5800 P   0  0  0  0  0  0  0  0  0  0  0  0
   18.4920   68.3420   32.5690 O   0  0  0  0  0  0  0  0  0  0  0  0
   20.7880   67.9490   31.5420 O   0  0  0  0  0  0  0  0  0  0  0  0
   18.6640   67.4040   30.2210 O   0  0  0  0  0  0  0  0  0  0  0  0
  1 15  1  6  0  0  0
  1  5  1  0  0  0  0
  2 17  1  1  0  0  0
  2  3  1  0  0  0  0
  2  1  1  0  0  0  0
  3  4  1  0  0  0  0
  4  5  1  0  0  0  0
  4  6  1  1  0  0  0
  6 12  2  0  0  0  0
  7  6  1  0  0  0  0
  7  8  2  0  0  0  0
  8 10  1  0  0  0  0
  9  8  1  0  0  0  0
 10 11  2  0  0  0  0
 10 13  1  0  0  0  0
 12 11  1  0  0  0  0
 14 13  1  0  0  0  0
 16 15  1  0  0  0  0
 17 18  1  0  0  0  0
 19 18  1  0  0  0  0
 19 20  1  0  0  0  0
 21 19  1  0  0  0  0
 22 19  2  0  0  0  0
M  END
>  <minimizedAffinity>
-7.07180023

$$$$
