
 OpenBabel12271915153D

 30 33  0  0  1  0  0  0  0  0999 V2000
   20.1440   61.7160   33.8730 C   0  0  1  0  0  0  0  0  0  0  0  0
   19.5090   62.6670   34.7710 N   0  0  0  0  0  0  0  0  0  0  0  0
   20.1370   63.4500   34.9590 H   0  0  0  0  0  0  0  0  0  0  0  0
   18.4090   63.2900   34.1180 O   0  0  0  0  0  0  0  0  0  0  0  0
   18.1770   62.6590   32.8860 C   0  0  2  0  0  0  0  0  0  0  0  0
   17.8680   63.6770   31.7930 C   0  0  1  0  0  0  0  0  0  0  0  0
   16.4730   63.4100   31.2260 C   0  0  2  0  0  0  0  0  0  0  0  0
   15.4970   63.2330   32.3870 C   0  0  1  0  0  0  0  0  0  0  0  0
   15.9120   62.0310   33.2460 C   0  0  2  0  0  0  0  0  0  0  0  0
   17.2360   61.6030   32.9820 O   0  0  0  0  0  0  0  0  0  0  0  0
   19.4720   61.9670   32.5470 C   0  0  0  0  0  0  0  0  0  0  0  0
   21.6490   61.8750   33.8280 C   0  0  0  0  0  0  0  0  0  0  0  0
   22.4400   61.1160   34.6920 C   0  0  0  0  0  0  0  0  0  0  0  0
   23.8190   61.2110   34.6360 C   0  0  0  0  0  0  0  0  0  0  0  0
   24.4520   62.0530   33.7270 C   0  0  0  0  0  0  0  0  0  0  0  0
   25.8390   62.1490   33.6550 C   0  0  0  0  0  0  0  0  0  0  0  0
   26.4430   62.9970   32.7330 C   0  0  0  0  0  0  0  0  0  0  0  0
   25.6760   63.7640   31.8700 C   0  0  0  0  0  0  0  0  0  0  0  0
   24.2960   63.6700   31.9370 C   0  0  0  0  0  0  0  0  0  0  0  0
   23.6730   62.8210   32.8570 C   0  0  0  0  0  0  0  0  0  0  0  0
   22.2930   62.7080   32.9220 C   0  0  0  0  0  0  0  0  0  0  0  0
   16.4810   62.2540   30.3770 O   0  0  0  0  0  0  0  0  0  0  0  0
   17.3170   61.7570   30.4950 H   0  0  0  0  0  0  0  0  0  0  0  0
   17.9510   65.0460   32.2770 O   0  0  0  0  0  0  0  0  0  0  0  0
   18.1000   65.6180   31.5100 H   0  0  0  0  0  0  0  0  0  0  0  0
   15.5380   64.4000   33.2150 O   0  0  0  0  0  0  0  0  0  0  0  0
   15.5160   65.2030   32.6680 H   0  0  0  0  0  0  0  0  0  0  0  0
   15.0140   60.8230   32.9590 C   0  0  0  0  0  0  0  0  0  0  0  0
   14.1720   61.0320   31.8170 O   0  0  0  0  0  0  0  0  0  0  0  0
   14.6390   60.7070   31.0180 H   0  0  0  0  0  0  0  0  0  0  0  0
  1 12  1  6  0  0  0
  1  2  1  0  0  0  0
  2  3  1  0  0  0  0
  4  2  1  0  0  0  0
  5 11  1  6  0  0  0
  5 10  1  0  0  0  0
  5  4  1  0  0  0  0
  6 24  1  0  0  0  0
  6  5  1  1  0  0  0
  7 22  1  1  0  0  0
  7  6  1  0  0  0  0
  7  8  1  0  0  0  0
  8 26  1  1  0  0  0
  8  9  1  0  0  0  0
  9 28  1  6  0  0  0
 10  9  1  0  0  0  0
 11  1  1  0  0  0  0
 12 13  2  0  0  0  0
 14 13  1  0  0  0  0
 15 14  2  0  0  0  0
 16 15  1  0  0  0  0
 17 16  2  0  0  0  0
 18 19  2  0  0  0  0
 18 17  1  0  0  0  0
 19 20  1  0  0  0  0
 20 21  2  0  0  0  0
 20 15  1  0  0  0  0
 21 12  1  0  0  0  0
 22 23  1  0  0  0  0
 25 24  1  0  0  0  0
 27 26  1  0  0  0  0
 29 28  1  0  0  0  0
 30 29  1  0  0  0  0
M  END
>  <minimizedAffinity>
-9.67376709

$$$$

 OpenBabel12271915153D

 30 33  0  0  1  0  0  0  0  0999 V2000
   21.5330   67.1270   32.5180 C   0  0  1  0  0  0  0  0  0  0  0  0
   21.8090   68.4090   31.8930 N   0  0  0  0  0  0  0  0  0  0  0  0
   22.5760   68.3200   31.2240 H   0  0  0  0  0  0  0  0  0  0  0  0
   20.7140   68.7950   31.0700 O   0  0  0  0  0  0  0  0  0  0  0  0
   19.6450   67.9050   31.2670 C   0  0  2  0  0  0  0  0  0  0  0  0
   18.9710   67.5500   29.9460 C   0  0  1  0  0  0  0  0  0  0  0  0
   17.5050   67.9810   29.9880 C   0  0  2  0  0  0  0  0  0  0  0  0
   17.4300   69.4150   30.5080 C   0  0  1  0  0  0  0  0  0  0  0  0
   18.0010   69.4910   31.9300 C   0  0  2  0  0  0  0  0  0  0  0  0
   18.7520   68.3410   32.2790 O   0  0  0  0  0  0  0  0  0  0  0  0
   20.2690   66.6590   31.8400 C   0  0  0  0  0  0  0  0  0  0  0  0
   22.6850   66.1540   32.3840 C   0  0  0  0  0  0  0  0  0  0  0  0
   23.6740   66.3990   31.4300 C   0  0  0  0  0  0  0  0  0  0  0  0
   24.7610   65.5490   31.3210 C   0  0  0  0  0  0  0  0  0  0  0  0
   24.9000   64.4400   32.1500 C   0  0  0  0  0  0  0  0  0  0  0  0
   25.9940   63.5840   32.0560 C   0  0  0  0  0  0  0  0  0  0  0  0
   26.1070   62.4860   32.9010 C   0  0  0  0  0  0  0  0  0  0  0  0
   25.1330   62.2200   33.8510 C   0  0  0  0  0  0  0  0  0  0  0  0
   24.0440   63.0710   33.9490 C   0  0  0  0  0  0  0  0  0  0  0  0
   23.9160   64.1810   33.1080 C   0  0  0  0  0  0  0  0  0  0  0  0
   22.8390   65.0460   33.2090 C   0  0  0  0  0  0  0  0  0  0  0  0
   16.7350   67.0930   30.8100 O   0  0  0  0  0  0  0  0  0  0  0  0
   17.3330   66.5210   31.3360 H   0  0  0  0  0  0  0  0  0  0  0  0
   19.6350   68.1640   28.8070 O   0  0  0  0  0  0  0  0  0  0  0  0
   19.4090   67.6430   28.0220 H   0  0  0  0  0  0  0  0  0  0  0  0
   18.2270   70.2590   29.6700 O   0  0  0  0  0  0  0  0  0  0  0  0
   18.0560   70.0630   28.7330 H   0  0  0  0  0  0  0  0  0  0  0  0
   16.8730   69.5850   32.9640 C   0  0  0  0  0  0  0  0  0  0  0  0
   16.4310   68.2930   33.4030 O   0  0  0  0  0  0  0  0  0  0  0  0
   16.9520   68.0340   34.1910 H   0  0  0  0  0  0  0  0  0  0  0  0
  1 12  1  6  0  0  0
  2  1  1  0  0  0  0
  3  2  1  0  0  0  0
  4  5  1  0  0  0  0
  4  2  1  0  0  0  0
  5 11  1  1  0  0  0
  5 10  1  0  0  0  0
  6  7  1  0  0  0  0
  6  5  1  1  0  0  0
  7  8  1  0  0  0  0
  7 22  1  1  0  0  0
  8 26  1  6  0  0  0
  8  9  1  0  0  0  0
  9 10  1  0  0  0  0
  9 28  1  1  0  0  0
 11  1  1  0  0  0  0
 12 21  2  0  0  0  0
 13 12  1  0  0  0  0
 14 13  2  0  0  0  0
 14 15  1  0  0  0  0
 15 20  1  0  0  0  0
 16 15  2  0  0  0  0
 16 17  1  0  0  0  0
 17 18  2  0  0  0  0
 18 19  1  0  0  0  0
 20 21  1  0  0  0  0
 20 19  2  0  0  0  0
 22 23  1  0  0  0  0
 24  6  1  0  0  0  0
 25 24  1  0  0  0  0
 27 26  1  0  0  0  0
 28 29  1  0  0  0  0
 29 30  1  0  0  0  0
M  END
>  <minimizedAffinity>
-8.9756794

$$$$

 OpenBabel12271915153D

 30 33  0  0  1  0  0  0  0  0999 V2000
   20.3190   68.0200   31.5070 C   0  0  1  0  0  0  0  0  0  0  0  0
   19.9250   67.9790   30.1090 N   0  0  0  0  0  0  0  0  0  0  0  0
   20.4140   67.2250   29.6240 H   0  0  0  0  0  0  0  0  0  0  0  0
   18.5590   67.5940   30.0010 O   0  0  0  0  0  0  0  0  0  0  0  0
   17.9820   67.5530   31.2800 C   0  0  2  0  0  0  0  0  0  0  0  0
   17.0770   66.3360   31.4390 C   0  0  1  0  0  0  0  0  0  0  0  0
   15.6500   66.7950   31.7410 C   0  0  2  0  0  0  0  0  0  0  0  0
   15.2680   67.8920   30.7490 C   0  0  1  0  0  0  0  0  0  0  0  0
   16.2100   69.0930   30.9020 C   0  0  2  0  0  0  0  0  0  0  0  0
   17.3750   68.7820   31.6440 O   0  0  0  0  0  0  0  0  0  0  0  0
   19.1420   67.4180   32.2320 C   0  0  0  0  0  0  0  0  0  0  0  0
   21.6220   67.2930   31.7650 C   0  0  0  0  0  0  0  0  0  0  0  0
   22.8260   67.9870   31.6330 C   0  0  0  0  0  0  0  0  0  0  0  0
   24.0270   67.3570   31.9090 C   0  0  0  0  0  0  0  0  0  0  0  0
   24.0700   66.0290   32.3220 C   0  0  0  0  0  0  0  0  0  0  0  0
   25.2700   65.3870   32.6110 C   0  0  0  0  0  0  0  0  0  0  0  0
   25.2810   64.0600   33.0260 C   0  0  0  0  0  0  0  0  0  0  0  0
   24.0990   63.3490   33.1570 C   0  0  0  0  0  0  0  0  0  0  0  0
   22.9010   63.9850   32.8720 C   0  0  0  0  0  0  0  0  0  0  0  0
   22.8720   65.3200   32.4560 C   0  0  0  0  0  0  0  0  0  0  0  0
   21.6790   65.9690   32.1830 C   0  0  0  0  0  0  0  0  0  0  0  0
   15.5400   67.2610   33.0930 O   0  0  0  0  0  0  0  0  0  0  0  0
   16.4320   67.3830   33.4790 H   0  0  0  0  0  0  0  0  0  0  0  0
   17.0830   65.4870   30.2580 O   0  0  0  0  0  0  0  0  0  0  0  0
   16.8040   64.6010   30.5340 H   0  0  0  0  0  0  0  0  0  0  0  0
   15.4120   67.3890   29.4170 O   0  0  0  0  0  0  0  0  0  0  0  0
   15.0220   66.5010   29.3470 H   0  0  0  0  0  0  0  0  0  0  0  0
   15.5190   70.2310   31.6630 C   0  0  0  0  0  0  0  0  0  0  0  0
   15.8200   70.2060   33.0640 O   0  0  0  0  0  0  0  0  0  0  0  0
   16.6130   70.7580   33.2260 H   0  0  0  0  0  0  0  0  0  0  0  0
  1 12  1  6  0  0  0
  1 11  1  0  0  0  0
  2  1  1  0  0  0  0
  3  2  1  0  0  0  0
  4  2  1  0  0  0  0
  4  5  1  0  0  0  0
  5 10  1  0  0  0  0
  5 11  1  1  0  0  0
  6  5  1  6  0  0  0
  6  7  1  0  0  0  0
  7 22  1  1  0  0  0
  8 26  1  6  0  0  0
  8  9  1  0  0  0  0
  8  7  1  0  0  0  0
  9 10  1  0  0  0  0
  9 28  1  1  0  0  0
 12 21  1  0  0  0  0
 13 12  2  0  0  0  0
 13 14  1  0  0  0  0
 14 15  2  0  0  0  0
 15 20  1  0  0  0  0
 15 16  1  0  0  0  0
 16 17  2  0  0  0  0
 17 18  1  0  0  0  0
 19 18  2  0  0  0  0
 20 19  1  0  0  0  0
 21 20  2  0  0  0  0
 22 23  1  0  0  0  0
 24 25  1  0  0  0  0
 24  6  1  0  0  0  0
 27 26  1  0  0  0  0
 28 29  1  0  0  0  0
 29 30  1  0  0  0  0
M  END
>  <minimizedAffinity>
-8.8974247

$$$$

 OpenBabel12271915153D

 30 33  0  0  1  0  0  0  0  0999 V2000
   20.6850   68.3420   31.5170 C   0  0  1  0  0  0  0  0  0  0  0  0
   19.9090   68.1990   30.2960 N   0  0  0  0  0  0  0  0  0  0  0  0
   19.7320   67.2120   30.1020 H   0  0  0  0  0  0  0  0  0  0  0  0
   18.6010   68.7260   30.4870 O   0  0  0  0  0  0  0  0  0  0  0  0
   18.5360   69.3770   31.7300 C   0  0  2  0  0  0  0  0  0  0  0  0
   17.2260   69.0680   32.4470 C   0  0  1  0  0  0  0  0  0  0  0  0
   16.4560   70.3670   32.6850 C   0  0  2  0  0  0  0  0  0  0  0  0
   16.4290   71.1670   31.3840 C   0  0  1  0  0  0  0  0  0  0  0  0
   17.8590   71.5210   30.9540 C   0  0  2  0  0  0  0  0  0  0  0  0
   18.8390   70.7590   31.6370 O   0  0  0  0  0  0  0  0  0  0  0  0
   19.6730   68.8040   32.5360 C   0  0  0  0  0  0  0  0  0  0  0  0
   21.3950   67.0640   31.9080 C   0  0  0  0  0  0  0  0  0  0  0  0
   20.6400   65.9200   32.1740 C   0  0  0  0  0  0  0  0  0  0  0  0
   21.2690   64.7280   32.4880 C   0  0  0  0  0  0  0  0  0  0  0  0
   22.6560   64.6340   32.5450 C   0  0  0  0  0  0  0  0  0  0  0  0
   23.3000   63.4390   32.8500 C   0  0  0  0  0  0  0  0  0  0  0  0
   24.6880   63.3740   32.8970 C   0  0  0  0  0  0  0  0  0  0  0  0
   25.4570   64.4990   32.6430 C   0  0  0  0  0  0  0  0  0  0  0  0
   24.8200   65.6910   32.3370 C   0  0  0  0  0  0  0  0  0  0  0  0
   23.4250   65.7710   32.2850 C   0  0  0  0  0  0  0  0  0  0  0  0
   22.7790   66.9550   31.9650 C   0  0  0  0  0  0  0  0  0  0  0  0
   17.0500   71.1260   33.7470 O   0  0  0  0  0  0  0  0  0  0  0  0
   17.9360   70.7650   33.9610 H   0  0  0  0  0  0  0  0  0  0  0  0
   16.3990   68.1310   31.7040 O   0  0  0  0  0  0  0  0  0  0  0  0
   15.7930   67.7130   32.3350 H   0  0  0  0  0  0  0  0  0  0  0  0
   15.8470   70.3640   30.3530 O   0  0  0  0  0  0  0  0  0  0  0  0
   15.0430   69.9250   30.6790 H   0  0  0  0  0  0  0  0  0  0  0  0
   18.1730   72.9880   31.2690 C   0  0  0  0  0  0  0  0  0  0  0  0
   18.9230   73.1330   32.4820 O   0  0  0  0  0  0  0  0  0  0  0  0
   19.8790   73.1140   32.2660 H   0  0  0  0  0  0  0  0  0  0  0  0
  1 12  1  1  0  0  0
  1 11  1  0  0  0  0
  2  4  1  0  0  0  0
  2  1  1  0  0  0  0
  3  2  1  0  0  0  0
  4  5  1  0  0  0  0
  5 11  1  1  0  0  0
  6  5  1  6  0  0  0
  6  7  1  0  0  0  0
  7 22  1  1  0  0  0
  8 26  1  6  0  0  0
  8  7  1  0  0  0  0
  9 28  1  1  0  0  0
  9  8  1  0  0  0  0
  9 10  1  0  0  0  0
 10  5  1  0  0  0  0
 12 21  2  0  0  0  0
 12 13  1  0  0  0  0
 13 14  2  0  0  0  0
 14 15  1  0  0  0  0
 15 16  2  0  0  0  0
 16 17  1  0  0  0  0
 18 17  2  0  0  0  0
 19 18  1  0  0  0  0
 20 19  2  0  0  0  0
 20 15  1  0  0  0  0
 21 20  1  0  0  0  0
 22 23  1  0  0  0  0
 24 25  1  0  0  0  0
 24  6  1  0  0  0  0
 26 27  1  0  0  0  0
 28 29  1  0  0  0  0
 30 29  1  0  0  0  0
M  END
>  <minimizedAffinity>
-8.87433052

$$$$

 OpenBabel12271915153D

 30 33  0  0  1  0  0  0  0  0999 V2000
   19.3000   63.4560   33.0190 C   0  0  1  0  0  0  0  0  0  0  0  0
   18.8570   63.2630   31.6480 N   0  0  0  0  0  0  0  0  0  0  0  0
   19.5310   62.6940   31.1340 H   0  0  0  0  0  0  0  0  0  0  0  0
   17.6820   62.4610   31.6270 O   0  0  0  0  0  0  0  0  0  0  0  0
   17.2250   62.2640   32.9400 C   0  0  2  0  0  0  0  0  0  0  0  0
   16.7660   60.8260   33.1570 C   0  0  1  0  0  0  0  0  0  0  0  0
   15.2890   60.8140   33.5480 C   0  0  2  0  0  0  0  0  0  0  0  0
   14.5180   61.7110   32.5810 C   0  0  1  0  0  0  0  0  0  0  0  0
   15.0350   63.1530   32.6740 C   0  0  2  0  0  0  0  0  0  0  0  0
   16.2810   63.2440   33.3410 O   0  0  0  0  0  0  0  0  0  0  0  0
   18.4210   62.5260   33.8180 C   0  0  0  0  0  0  0  0  0  0  0  0
   20.7800   63.1880   33.1950 C   0  0  0  0  0  0  0  0  0  0  0  0
   21.1870   62.0630   33.9140 C   0  0  0  0  0  0  0  0  0  0  0  0
   22.5330   61.7720   34.0480 C   0  0  0  0  0  0  0  0  0  0  0  0
   23.5100   62.5810   33.4750 C   0  0  0  0  0  0  0  0  0  0  0  0
   24.8660   62.2930   33.5940 C   0  0  0  0  0  0  0  0  0  0  0  0
   25.8190   63.1180   33.0060 C   0  0  0  0  0  0  0  0  0  0  0  0
   25.4380   64.2430   32.2930 C   0  0  0  0  0  0  0  0  0  0  0  0
   24.0880   64.5320   32.1700 C   0  0  0  0  0  0  0  0  0  0  0  0
   23.1180   63.7120   32.7530 C   0  0  0  0  0  0  0  0  0  0  0  0
   21.7650   63.9840   32.6230 C   0  0  0  0  0  0  0  0  0  0  0  0
   15.1160   61.2480   34.9040 O   0  0  0  0  0  0  0  0  0  0  0  0
   15.9440   61.6550   35.2330 H   0  0  0  0  0  0  0  0  0  0  0  0
   16.9730   59.9990   31.9780 O   0  0  0  0  0  0  0  0  0  0  0  0
   17.0080   59.0770   32.2720 H   0  0  0  0  0  0  0  0  0  0  0  0
   14.7350   61.2520   31.2430 O   0  0  0  0  0  0  0  0  0  0  0  0
   14.6450   60.2850   31.1980 H   0  0  0  0  0  0  0  0  0  0  0  0
   14.0640   64.0270   33.4760 C   0  0  0  0  0  0  0  0  0  0  0  0
   14.6320   65.2990   33.8130 O   0  0  0  0  0  0  0  0  0  0  0  0
   14.4130   65.9390   33.1030 H   0  0  0  0  0  0  0  0  0  0  0  0
  1 12  1  6  0  0  0
  1 11  1  0  0  0  0
  2  1  1  0  0  0  0
  3  2  1  0  0  0  0
  4  2  1  0  0  0  0
  4  5  1  0  0  0  0
  5 10  1  0  0  0  0
  5 11  1  1  0  0  0
  6  5  1  6  0  0  0
  6  7  1  0  0  0  0
  7 22  1  1  0  0  0
  8 26  1  6  0  0  0
  8  9  1  0  0  0  0
  8  7  1  0  0  0  0
  9 10  1  0  0  0  0
  9 28  1  1  0  0  0
 12 13  2  0  0  0  0
 13 14  1  0  0  0  0
 15 16  1  0  0  0  0
 15 14  2  0  0  0  0
 17 16  2  0  0  0  0
 18 17  1  0  0  0  0
 19 18  2  0  0  0  0
 19 20  1  0  0  0  0
 20 15  1  0  0  0  0
 21 20  2  0  0  0  0
 21 12  1  0  0  0  0
 22 23  1  0  0  0  0
 24 25  1  0  0  0  0
 24  6  1  0  0  0  0
 27 26  1  0  0  0  0
 28 29  1  0  0  0  0
 30 29  1  0  0  0  0
M  END
>  <minimizedAffinity>
-8.85201359

$$$$

 OpenBabel12271915153D

 30 33  0  0  1  0  0  0  0  0999 V2000
   21.2150   68.4150   31.3760 C   0  0  1  0  0  0  0  0  0  0  0  0
   20.3920   67.9650   30.2660 N   0  0  0  0  0  0  0  0  0  0  0  0
   20.4690   66.9520   30.1540 H   0  0  0  0  0  0  0  0  0  0  0  0
   19.0160   68.1460   30.5770 O   0  0  0  0  0  0  0  0  0  0  0  0
   18.8980   68.8660   31.7770 C   0  0  2  0  0  0  0  0  0  0  0  0
   17.7960   68.2920   32.6610 C   0  0  1  0  0  0  0  0  0  0  0  0
   16.7310   69.3590   32.9090 C   0  0  2  0  0  0  0  0  0  0  0  0
   16.3640   70.0050   31.5740 C   0  0  1  0  0  0  0  0  0  0  0  0
   17.5960   70.6800   30.9590 C   0  0  2  0  0  0  0  0  0  0  0  0
   18.8060   70.2660   31.5670 O   0  0  0  0  0  0  0  0  0  0  0  0
   20.2200   68.6860   32.4770 C   0  0  0  0  0  0  0  0  0  0  0  0
   22.2780   67.4060   31.7580 C   0  0  0  0  0  0  0  0  0  0  0  0
   23.6220   67.7760   31.6910 C   0  0  0  0  0  0  0  0  0  0  0  0
   24.6090   66.8860   32.0790 C   0  0  0  0  0  0  0  0  0  0  0  0
   24.2940   65.6130   32.5440 C   0  0  0  0  0  0  0  0  0  0  0  0
   25.2770   64.7130   32.9460 C   0  0  0  0  0  0  0  0  0  0  0  0
   24.9320   63.4490   33.4100 C   0  0  0  0  0  0  0  0  0  0  0  0
   23.6040   63.0580   33.4790 C   0  0  0  0  0  0  0  0  0  0  0  0
   22.6220   63.9520   33.0810 C   0  0  0  0  0  0  0  0  0  0  0  0
   22.9530   65.2270   32.6140 C   0  0  0  0  0  0  0  0  0  0  0  0
   21.9780   66.1340   32.2290 C   0  0  0  0  0  0  0  0  0  0  0  0
   17.1990   70.3400   33.8450 O   0  0  0  0  0  0  0  0  0  0  0  0
   18.1650   70.2440   33.9760 H   0  0  0  0  0  0  0  0  0  0  0  0
   17.1840   67.1080   32.0780 O   0  0  0  0  0  0  0  0  0  0  0  0
   16.7780   66.6050   32.7990 H   0  0  0  0  0  0  0  0  0  0  0  0
   15.9220   68.9890   30.6680 O   0  0  0  0  0  0  0  0  0  0  0  0
   15.3020   68.3860   31.1130 H   0  0  0  0  0  0  0  0  0  0  0  0
   17.5320   72.2000   31.1450 C   0  0  0  0  0  0  0  0  0  0  0  0
   18.2270   72.6320   32.3220 O   0  0  0  0  0  0  0  0  0  0  0  0
   19.1560   72.8340   32.0830 H   0  0  0  0  0  0  0  0  0  0  0  0
  1 12  1  1  0  0  0
  1 11  1  0  0  0  0
  2  4  1  0  0  0  0
  2  1  1  0  0  0  0
  3  2  1  0  0  0  0
  4  5  1  0  0  0  0
  5 11  1  1  0  0  0
  6  5  1  6  0  0  0
  6  7  1  0  0  0  0
  7 22  1  1  0  0  0
  8 26  1  6  0  0  0
  8  7  1  0  0  0  0
  9 28  1  1  0  0  0
  9 10  1  0  0  0  0
  9  8  1  0  0  0  0
 10  5  1  0  0  0  0
 12 21  1  0  0  0  0
 13 12  2  0  0  0  0
 13 14  1  0  0  0  0
 14 15  2  0  0  0  0
 15 20  1  0  0  0  0
 15 16  1  0  0  0  0
 16 17  2  0  0  0  0
 17 18  1  0  0  0  0
 19 18  2  0  0  0  0
 20 19  1  0  0  0  0
 21 20  2  0  0  0  0
 22 23  1  0  0  0  0
 24  6  1  0  0  0  0
 24 25  1  0  0  0  0
 26 27  1  0  0  0  0
 28 29  1  0  0  0  0
 30 29  1  0  0  0  0
M  END
>  <minimizedAffinity>
-8.80828762

$$$$

 OpenBabel12271915153D

 30 33  0  0  1  0  0  0  0  0999 V2000
   18.7310   67.8560   31.5090 C   0  0  1  0  0  0  0  0  0  0  0  0
   17.7320   67.7690   32.5610 N   0  0  0  0  0  0  0  0  0  0  0  0
   18.1620   67.4590   33.4340 H   0  0  0  0  0  0  0  0  0  0  0  0
   17.2560   69.0700   32.8870 O   0  0  0  0  0  0  0  0  0  0  0  0
   17.7670   69.9990   31.9660 C   0  0  2  0  0  0  0  0  0  0  0  0
   18.2040   71.2830   32.6630 C   0  0  1  0  0  0  0  0  0  0  0  0
   17.4010   72.4620   32.1140 C   0  0  2  0  0  0  0  0  0  0  0  0
   15.9220   72.0830   32.0970 C   0  0  1  0  0  0  0  0  0  0  0  0
   15.6980   70.8730   31.1820 C   0  0  2  0  0  0  0  0  0  0  0  0
   16.9030   70.2020   30.8590 O   0  0  0  0  0  0  0  0  0  0  0  0
   18.9810   69.3370   31.3690 C   0  0  0  0  0  0  0  0  0  0  0  0
   19.9800   67.0600   31.8260 C   0  0  0  0  0  0  0  0  0  0  0  0
   19.8560   65.7220   32.2010 C   0  0  0  0  0  0  0  0  0  0  0  0
   20.9860   64.9620   32.4510 C   0  0  0  0  0  0  0  0  0  0  0  0
   22.2630   65.5020   32.3340 C   0  0  0  0  0  0  0  0  0  0  0  0
   23.4070   64.7460   32.5720 C   0  0  0  0  0  0  0  0  0  0  0  0
   24.6700   65.3120   32.4430 C   0  0  0  0  0  0  0  0  0  0  0  0
   24.8150   66.6410   32.0780 C   0  0  0  0  0  0  0  0  0  0  0  0
   23.6800   67.3970   31.8380 C   0  0  0  0  0  0  0  0  0  0  0  0
   22.4020   66.8420   31.9610 C   0  0  0  0  0  0  0  0  0  0  0  0
   21.2610   67.5860   31.7080 C   0  0  0  0  0  0  0  0  0  0  0  0
   17.8560   72.8230   30.8020 O   0  0  0  0  0  0  0  0  0  0  0  0
   18.4400   72.1210   30.4460 H   0  0  0  0  0  0  0  0  0  0  0  0
   18.0470   71.2070   34.1070 O   0  0  0  0  0  0  0  0  0  0  0  0
   18.6440   71.8610   34.5000 H   0  0  0  0  0  0  0  0  0  0  0  0
   15.5190   71.7130   33.4200 O   0  0  0  0  0  0  0  0  0  0  0  0
   15.8580   72.3540   34.0680 H   0  0  0  0  0  0  0  0  0  0  0  0
   15.0900   71.3090   29.8440 C   0  0  0  0  0  0  0  0  0  0  0  0
   16.0890   71.5210   28.8380 O   0  0  0  0  0  0  0  0  0  0  0  0
   16.2280   70.6830   28.3500 H   0  0  0  0  0  0  0  0  0  0  0  0
  1 12  1  1  0  0  0
  1  2  1  0  0  0  0
  2  4  1  0  0  0  0
  2  3  1  0  0  0  0
  5 11  1  6  0  0  0
  5  4  1  0  0  0  0
  6  5  1  6  0  0  0
  6 24  1  0  0  0  0
  7 22  1  6  0  0  0
  7  6  1  0  0  0  0
  8  7  1  0  0  0  0
  8 26  1  1  0  0  0
  9 28  1  6  0  0  0
  9  8  1  0  0  0  0
 10  9  1  0  0  0  0
 10  5  1  0  0  0  0
 11  1  1  0  0  0  0
 12 13  1  0  0  0  0
 13 14  2  0  0  0  0
 15 14  1  0  0  0  0
 15 16  2  0  0  0  0
 17 16  1  0  0  0  0
 18 17  2  0  0  0  0
 19 20  2  0  0  0  0
 19 18  1  0  0  0  0
 20 15  1  0  0  0  0
 21 12  2  0  0  0  0
 21 20  1  0  0  0  0
 23 22  1  0  0  0  0
 24 25  1  0  0  0  0
 26 27  1  0  0  0  0
 29 28  1  0  0  0  0
 30 29  1  0  0  0  0
M  END
>  <minimizedAffinity>
-8.66699505

$$$$

 OpenBabel12271915153D

 30 33  0  0  1  0  0  0  0  0999 V2000
   19.3120   67.1270   31.5170 C   0  0  1  0  0  0  0  0  0  0  0  0
   18.5610   67.2820   32.7520 N   0  0  0  0  0  0  0  0  0  0  0  0
   19.1970   67.4440   33.5350 H   0  0  0  0  0  0  0  0  0  0  0  0
   17.7970   68.4810   32.7080 O   0  0  0  0  0  0  0  0  0  0  0  0
   17.8700   69.0360   31.4210 C   0  0  2  0  0  0  0  0  0  0  0  0
   18.0360   70.5510   31.4800 C   0  0  1  0  0  0  0  0  0  0  0  0
   16.8560   71.2220   30.7770 C   0  0  2  0  0  0  0  0  0  0  0  0
   15.5610   70.5880   31.2790 C   0  0  1  0  0  0  0  0  0  0  0  0
   15.5410   69.0910   30.9420 C   0  0  2  0  0  0  0  0  0  0  0  0
   16.8180   68.5980   30.5770 O   0  0  0  0  0  0  0  0  0  0  0  0
   19.1090   68.4400   30.8040 C   0  0  0  0  0  0  0  0  0  0  0  0
   20.7680   66.7900   31.7600 C   0  0  0  0  0  0  0  0  0  0  0  0
   21.7310   67.7880   31.6070 C   0  0  0  0  0  0  0  0  0  0  0  0
   23.0630   67.5150   31.8680 C   0  0  0  0  0  0  0  0  0  0  0  0
   23.4750   66.2540   32.2890 C   0  0  0  0  0  0  0  0  0  0  0  0
   24.8100   65.9710   32.5640 C   0  0  0  0  0  0  0  0  0  0  0  0
   25.1920   64.7020   32.9870 C   0  0  0  0  0  0  0  0  0  0  0  0
   24.2520   63.6950   33.1390 C   0  0  0  0  0  0  0  0  0  0  0  0
   22.9220   63.9730   32.8680 C   0  0  0  0  0  0  0  0  0  0  0  0
   22.5220   65.2440   32.4440 C   0  0  0  0  0  0  0  0  0  0  0  0
   21.1920   65.5370   32.1850 C   0  0  0  0  0  0  0  0  0  0  0  0
   16.9730   71.1000   29.3530 O   0  0  0  0  0  0  0  0  0  0  0  0
   17.6650   70.4420   29.1300 H   0  0  0  0  0  0  0  0  0  0  0  0
   18.1420   71.0400   32.8460 O   0  0  0  0  0  0  0  0  0  0  0  0
   18.5870   71.9000   32.8140 H   0  0  0  0  0  0  0  0  0  0  0  0
   15.4970   70.7170   32.7040 O   0  0  0  0  0  0  0  0  0  0  0  0
   15.7420   71.6190   32.9720 H   0  0  0  0  0  0  0  0  0  0  0  0
   14.6270   68.8170   29.7420 C   0  0  0  0  0  0  0  0  0  0  0  0
   14.0960   70.0230   29.1790 O   0  0  0  0  0  0  0  0  0  0  0  0
   14.7020   70.3370   28.4750 H   0  0  0  0  0  0  0  0  0  0  0  0
  1 12  1  1  0  0  0
  1  2  1  0  0  0  0
  2  3  1  0  0  0  0
  4  2  1  0  0  0  0
  5 11  1  6  0  0  0
  5  4  1  0  0  0  0
  6  5  1  1  0  0  0
  6 24  1  0  0  0  0
  7 22  1  6  0  0  0
  7  8  1  0  0  0  0
  7  6  1  0  0  0  0
  8 26  1  1  0  0  0
  9 28  1  6  0  0  0
  9  8  1  0  0  0  0
 10  9  1  0  0  0  0
 10  5  1  0  0  0  0
 11  1  1  0  0  0  0
 12 21  1  0  0  0  0
 13 12  2  0  0  0  0
 13 14  1  0  0  0  0
 14 15  2  0  0  0  0
 15 20  1  0  0  0  0
 15 16  1  0  0  0  0
 16 17  2  0  0  0  0
 17 18  1  0  0  0  0
 19 18  2  0  0  0  0
 20 19  1  0  0  0  0
 21 20  2  0  0  0  0
 23 22  1  0  0  0  0
 25 24  1  0  0  0  0
 26 27  1  0  0  0  0
 29 28  1  0  0  0  0
 30 29  1  0  0  0  0
M  END
>  <minimizedAffinity>
-8.65134335

$$$$

 OpenBabel12271915153D

 30 33  0  0  1  0  0  0  0  0999 V2000
   20.3530   62.2460   32.9450 C   0  0  1  0  0  0  0  0  0  0  0  0
   20.5000   62.7250   34.3100 N   0  0  0  0  0  0  0  0  0  0  0  0
   20.1470   62.0300   34.9700 H   0  0  0  0  0  0  0  0  0  0  0  0
   21.8800   62.8110   34.6470 O   0  0  0  0  0  0  0  0  0  0  0  0
   22.6580   62.5820   33.5010 C   0  0  2  0  0  0  0  0  0  0  0  0
   23.8600   61.6980   33.8160 C   0  0  1  0  0  0  0  0  0  0  0  0
   25.1490   62.4560   33.5000 C   0  0  2  0  0  0  0  0  0  0  0  0
   25.0610   63.8520   34.1150 C   0  0  1  0  0  0  0  0  0  0  0  0
   23.8810   64.6220   33.5070 C   0  0  2  0  0  0  0  0  0  0  0  0
   22.9800   63.7790   32.8120 O   0  0  0  0  0  0  0  0  0  0  0  0
   21.7520   61.8430   32.5510 C   0  0  0  0  0  0  0  0  0  0  0  0
   19.3450   61.1230   32.8290 C   0  0  0  0  0  0  0  0  0  0  0  0
   19.7950   59.8010   32.8460 C   0  0  0  0  0  0  0  0  0  0  0  0
   18.8880   58.7570   32.7870 C   0  0  0  0  0  0  0  0  0  0  0  0
   17.5180   58.9900   32.7140 C   0  0  0  0  0  0  0  0  0  0  0  0
   16.5960   57.9490   32.6650 C   0  0  0  0  0  0  0  0  0  0  0  0
   15.2330   58.2120   32.5950 C   0  0  0  0  0  0  0  0  0  0  0  0
   14.7650   59.5170   32.5710 C   0  0  0  0  0  0  0  0  0  0  0  0
   15.6790   60.5570   32.6210 C   0  0  0  0  0  0  0  0  0  0  0  0
   17.0530   60.3080   32.6930 C   0  0  0  0  0  0  0  0  0  0  0  0
   17.9750   61.3410   32.7600 C   0  0  0  0  0  0  0  0  0  0  0  0
   25.3650   62.5280   32.0840 O   0  0  0  0  0  0  0  0  0  0  0  0
   24.5500   62.2630   31.6070 H   0  0  0  0  0  0  0  0  0  0  0  0
   23.8710   61.2590   35.2030 O   0  0  0  0  0  0  0  0  0  0  0  0
   24.4120   60.4560   35.2500 H   0  0  0  0  0  0  0  0  0  0  0  0
   24.8270   63.7290   35.5220 O   0  0  0  0  0  0  0  0  0  0  0  0
   25.4150   63.0560   35.9050 H   0  0  0  0  0  0  0  0  0  0  0  0
   24.3740   65.6470   32.4800 C   0  0  0  0  0  0  0  0  0  0  0  0
   24.2710   65.1610   31.1360 O   0  0  0  0  0  0  0  0  0  0  0  0
   23.3960   65.4170   30.7740 H   0  0  0  0  0  0  0  0  0  0  0  0
  1 12  1  1  0  0  0
  1  2  1  0  0  0  0
  2  4  1  0  0  0  0
  2  3  1  0  0  0  0
  5 11  1  6  0  0  0
  5  4  1  0  0  0  0
  6  5  1  1  0  0  0
  6 24  1  0  0  0  0
  7 22  1  6  0  0  0
  7  6  1  0  0  0  0
  7  8  1  0  0  0  0
  8 26  1  1  0  0  0
  9 28  1  6  0  0  0
  9  8  1  0  0  0  0
 10  5  1  0  0  0  0
 10  9  1  0  0  0  0
 11  1  1  0  0  0  0
 12 13  1  0  0  0  0
 14 13  2  0  0  0  0
 15 14  1  0  0  0  0
 16 15  2  0  0  0  0
 17 16  1  0  0  0  0
 18 17  2  0  0  0  0
 18 19  1  0  0  0  0
 19 20  2  0  0  0  0
 20 15  1  0  0  0  0
 20 21  1  0  0  0  0
 21 12  2  0  0  0  0
 23 22  1  0  0  0  0
 24 25  1  0  0  0  0
 26 27  1  0  0  0  0
 29 28  1  0  0  0  0
 30 29  1  0  0  0  0
M  END
>  <minimizedAffinity>
-8.64221478

$$$$
