
 OpenBabel12271915113D

 32 35  0  0  1  0  0  0  0  0999 V2000
   18.3100   66.2620   31.7070 C   0  0  1  0  0  0  0  0  0  0  0  0
   17.0190   67.0210   32.1280 N   0  0  0  0  0  0  0  0  0  0  0  0
   16.6200   66.5540   32.9140 H   0  0  0  0  0  0  0  0  0  0  0  0
   17.2260   68.0040   32.3670 H   0  0  0  0  0  0  0  0  0  0  0  0
   16.3610   67.0270   31.3710 H   0  0  0  0  0  0  0  0  0  0  0  0
   17.8690   65.0180   30.9270 C   0  0  0  0  0  0  0  0  0  0  0  0
   17.9250   63.8350   31.8250 C   0  0  0  0  0  0  0  0  0  0  0  0
   19.0690   63.0210   32.0190 C   0  0  0  0  0  0  0  0  0  0  0  0
   20.3750   63.0850   31.4490 C   0  0  0  0  0  0  0  0  0  0  0  0
   21.3350   62.1560   31.8210 C   0  0  0  0  0  0  0  0  0  0  0  0
   21.0040   61.1610   32.7560 C   0  0  0  0  0  0  0  0  0  0  0  0
   19.7230   61.1000   33.3250 C   0  0  0  0  0  0  0  0  0  0  0  0
   18.7860   62.0540   32.9360 C   0  0  0  0  0  0  0  0  0  0  0  0
   17.4500   62.2110   33.3410 N   0  0  0  0  0  0  0  0  0  0  0  0
   16.9610   61.6350   33.9760 H   0  0  0  0  0  0  0  0  0  0  0  0
   16.9490   63.3160   32.6570 C   0  0  0  0  0  0  0  0  0  0  0  0
   19.0300   67.2390   30.7170 C   0  0  0  0  0  0  0  0  0  0  0  0
   20.2520   67.6190   31.5200 O   0  0  0  0  0  0  0  0  0  0  0  0
   21.5180   67.2400   31.8160 C   0  0  0  0  0  0  0  0  0  0  0  0
   21.9900   66.0360   32.2160 C   0  0  0  0  0  0  0  0  0  0  0  0
   23.4560   65.8950   32.3040 C   0  0  0  0  0  0  0  0  0  0  0  0
   24.2770   67.0570   32.0310 C   0  0  0  0  0  0  0  0  0  0  0  0
   23.7380   68.2130   31.7130 N   0  0  0  0  0  0  0  0  0  0  0  0
   22.3640   68.2590   31.6290 C   0  0  0  0  0  0  0  0  0  0  0  0
   24.1930   64.6710   32.6250 C   0  0  0  0  0  0  0  0  0  0  0  0
   25.3230   64.3170   32.0600 C   0  0  0  0  0  0  0  0  0  0  0  0
   26.0630   63.0540   32.3520 C   0  0  0  0  0  0  0  0  0  0  0  0
   27.0630   62.6760   31.4640 C   0  0  0  0  0  0  0  0  0  0  0  0
   27.7440   61.5050   31.7350 C   0  0  0  0  0  0  0  0  0  0  0  0
   27.5070   60.7100   32.7890 N   0  0  0  0  0  0  0  0  0  0  0  0
   26.5280   61.1150   33.6230 C   0  0  0  0  0  0  0  0  0  0  0  0
   25.7840   62.2500   33.4650 C   0  0  0  0  0  0  0  0  0  0  0  0
  1 17  1  6  0  0  0
  1  2  1  0  0  0  0
  2  4  1  0  0  0  0
  2  3  1  0  0  0  0
  5  2  1  0  0  0  0
  6  1  1  0  0  0  0
  6  7  1  0  0  0  0
  7  8  1  0  0  0  0
  7 16  2  0  0  0  0
  8 13  2  0  0  0  0
  9 10  2  0  0  0  0
  9  8  1  0  0  0  0
 10 11  1  0  0  0  0
 11 12  2  0  0  0  0
 13 12  1  0  0  0  0
 13 14  1  0  0  0  0
 14 15  1  0  0  0  0
 16 14  1  0  0  0  0
 17 18  1  0  0  0  0
 18 19  1  0  0  0  0
 19 20  2  0  0  0  0
 20 21  1  0  0  0  0
 21 25  1  0  0  0  0
 22 21  2  0  0  0  0
 23 22  1  0  0  0  0
 24 23  2  0  0  0  0
 24 19  1  0  0  0  0
 26 27  1  0  0  0  0
 26 25  2  0  0  0  0
 27 32  2  0  0  0  0
 28 29  2  0  0  0  0
 28 27  1  0  0  0  0
 29 30  1  0  0  0  0
 30 31  2  0  0  0  0
 32 31  1  0  0  0  0
M  END
>  <minimizedAffinity>
-8.6659317

$$$$

 OpenBabel12271915113D

 32 35  0  0  1  0  0  0  0  0999 V2000
   23.5220   66.4500   31.7140 C   0  0  1  0  0  0  0  0  0  0  0  0
   24.4780   67.6730   31.6330 N   0  0  0  0  0  0  0  0  0  0  0  0
   25.3850   67.3500   31.3730 H   0  0  0  0  0  0  0  0  0  0  0  0
   24.1390   68.3670   30.9470 H   0  0  0  0  0  0  0  0  0  0  0  0
   24.5280   68.1310   32.5240 H   0  0  0  0  0  0  0  0  0  0  0  0
   23.8080   65.7390   33.0420 C   0  0  0  0  0  0  0  0  0  0  0  0
   24.7400   64.6070   32.7990 C   0  0  0  0  0  0  0  0  0  0  0  0
   24.9030   63.4960   33.6630 C   0  0  0  0  0  0  0  0  0  0  0  0
   24.2890   63.1770   34.9090 C   0  0  0  0  0  0  0  0  0  0  0  0
   24.6240   61.9990   35.5600 C   0  0  0  0  0  0  0  0  0  0  0  0
   25.5670   61.1350   34.9790 C   0  0  0  0  0  0  0  0  0  0  0  0
   26.1670   61.4410   33.7480 C   0  0  0  0  0  0  0  0  0  0  0  0
   25.8010   62.6280   33.1180 C   0  0  0  0  0  0  0  0  0  0  0  0
   26.2500   63.1680   31.9000 N   0  0  0  0  0  0  0  0  0  0  0  0
   26.9270   62.7730   31.3010 H   0  0  0  0  0  0  0  0  0  0  0  0
   25.5760   64.3730   31.7220 C   0  0  0  0  0  0  0  0  0  0  0  0
   22.0890   67.0790   31.7860 C   0  0  0  0  0  0  0  0  0  0  0  0
   21.3230   65.9790   32.4820 O   0  0  0  0  0  0  0  0  0  0  0  0
   20.3430   65.0600   32.3070 C   0  0  0  0  0  0  0  0  0  0  0  0
   20.2840   63.7700   32.7110 C   0  0  0  0  0  0  0  0  0  0  0  0
   19.0010   63.0690   32.5060 C   0  0  0  0  0  0  0  0  0  0  0  0
   17.9310   63.7760   31.8310 C   0  0  0  0  0  0  0  0  0  0  0  0
   18.0900   65.0100   31.4070 N   0  0  0  0  0  0  0  0  0  0  0  0
   19.3080   65.6040   31.6570 C   0  0  0  0  0  0  0  0  0  0  0  0
   18.6750   61.7090   32.9400 C   0  0  0  0  0  0  0  0  0  0  0  0
   18.2160   60.7700   32.1470 C   0  0  0  0  0  0  0  0  0  0  0  0
   17.8440   59.3930   32.5850 C   0  0  0  0  0  0  0  0  0  0  0  0
   16.4910   59.0870   32.6620 C   0  0  0  0  0  0  0  0  0  0  0  0
   16.1490   57.8120   33.0710 C   0  0  0  0  0  0  0  0  0  0  0  0
   17.0280   56.8540   33.3980 N   0  0  0  0  0  0  0  0  0  0  0  0
   18.3300   57.1950   33.3090 C   0  0  0  0  0  0  0  0  0  0  0  0
   18.7940   58.4190   32.9200 C   0  0  0  0  0  0  0  0  0  0  0  0
  1 17  1  1  0  0  0
  1  6  1  0  0  0  0
  2  1  1  0  0  0  0
  2  5  1  0  0  0  0
  3  2  1  0  0  0  0
  4  2  1  0  0  0  0
  7  6  1  0  0  0  0
  7  8  1  0  0  0  0
  8  9  1  0  0  0  0
  9 10  2  0  0  0  0
 11 10  1  0  0  0  0
 12 11  2  0  0  0  0
 13  8  2  0  0  0  0
 13 12  1  0  0  0  0
 14 13  1  0  0  0  0
 15 14  1  0  0  0  0
 16 14  1  0  0  0  0
 16  7  2  0  0  0  0
 17 18  1  0  0  0  0
 19 18  1  0  0  0  0
 19 20  2  0  0  0  0
 21 20  1  0  0  0  0
 21 25  1  0  0  0  0
 22 21  2  0  0  0  0
 23 24  2  0  0  0  0
 23 22  1  0  0  0  0
 24 19  1  0  0  0  0
 26 27  1  0  0  0  0
 26 25  2  0  0  0  0
 27 28  2  0  0  0  0
 27 32  1  0  0  0  0
 28 29  1  0  0  0  0
 29 30  2  0  0  0  0
 31 30  1  0  0  0  0
 32 31  2  0  0  0  0
M  END
>  <minimizedAffinity>
-8.42523479

$$$$

 OpenBabel12271915113D

 32 35  0  0  1  0  0  0  0  0999 V2000
   20.2300   60.9320   32.9190 C   0  0  1  0  0  0  0  0  0  0  0  0
   20.2800   59.3900   32.7220 N   0  0  0  0  0  0  0  0  0  0  0  0
   20.9800   59.0160   33.3250 H   0  0  0  0  0  0  0  0  0  0  0  0
   19.3650   58.9580   32.9310 H   0  0  0  0  0  0  0  0  0  0  0  0
   20.5060   59.1720   31.7690 H   0  0  0  0  0  0  0  0  0  0  0  0
   21.4160   61.5240   32.1480 C   0  0  0  0  0  0  0  0  0  0  0  0
   22.4310   62.0150   33.1170 C   0  0  0  0  0  0  0  0  0  0  0  0
   23.1420   63.2350   32.9930 C   0  0  0  0  0  0  0  0  0  0  0  0
   23.1050   64.2460   31.9880 C   0  0  0  0  0  0  0  0  0  0  0  0
   23.9100   65.3690   32.1110 C   0  0  0  0  0  0  0  0  0  0  0  0
   24.7530   65.4930   33.2280 C   0  0  0  0  0  0  0  0  0  0  0  0
   24.7860   64.5040   34.2230 C   0  0  0  0  0  0  0  0  0  0  0  0
   23.9580   63.3940   34.0720 C   0  0  0  0  0  0  0  0  0  0  0  0
   23.8050   62.2740   34.9070 N   0  0  0  0  0  0  0  0  0  0  0  0
   24.2940   62.1010   35.7470 H   0  0  0  0  0  0  0  0  0  0  0  0
   22.8560   61.4510   34.3060 C   0  0  0  0  0  0  0  0  0  0  0  0
   18.9060   61.3730   32.2090 C   0  0  0  0  0  0  0  0  0  0  0  0
   19.2240   62.8110   31.8690 O   0  0  0  0  0  0  0  0  0  0  0  0
   18.6620   64.0240   31.6530 C   0  0  0  0  0  0  0  0  0  0  0  0
   19.1270   65.2590   31.9560 C   0  0  0  0  0  0  0  0  0  0  0  0
   18.3500   66.4040   31.4420 C   0  0  0  0  0  0  0  0  0  0  0  0
   17.1210   66.1340   30.7220 C   0  0  0  0  0  0  0  0  0  0  0  0
   16.7010   64.9040   30.5270 N   0  0  0  0  0  0  0  0  0  0  0  0
   17.4930   63.8890   31.0160 C   0  0  0  0  0  0  0  0  0  0  0  0
   18.7030   67.8190   31.5660 C   0  0  0  0  0  0  0  0  0  0  0  0
   17.8860   68.7510   31.9960 C   0  0  0  0  0  0  0  0  0  0  0  0
   18.2230   70.2020   32.0900 C   0  0  0  0  0  0  0  0  0  0  0  0
   18.6930   70.6740   33.3090 C   0  0  0  0  0  0  0  0  0  0  0  0
   19.0010   72.0190   33.3940 C   0  0  0  0  0  0  0  0  0  0  0  0
   18.8760   72.8960   32.3870 N   0  0  0  0  0  0  0  0  0  0  0  0
   18.4150   72.3940   31.2230 C   0  0  0  0  0  0  0  0  0  0  0  0
   18.0770   71.0880   31.0140 C   0  0  0  0  0  0  0  0  0  0  0  0
  1  6  1  6  0  0  0
  2  1  1  0  0  0  0
  2  4  1  0  0  0  0
  2  3  1  0  0  0  0
  5  2  1  0  0  0  0
  6  7  1  0  0  0  0
  7 16  2  0  0  0  0
  8  7  1  0  0  0  0
  8 13  2  0  0  0  0
  9 10  2  0  0  0  0
  9  8  1  0  0  0  0
 10 11  1  0  0  0  0
 11 12  2  0  0  0  0
 13 12  1  0  0  0  0
 13 14  1  0  0  0  0
 14 15  1  0  0  0  0
 16 14  1  0  0  0  0
 17  1  1  0  0  0  0
 18 17  1  0  0  0  0
 19 18  1  0  0  0  0
 19 20  1  0  0  0  0
 21 25  1  0  0  0  0
 21 20  2  0  0  0  0
 22 21  1  0  0  0  0
 23 22  2  0  0  0  0
 23 24  1  0  0  0  0
 24 19  2  0  0  0  0
 25 26  2  0  0  0  0
 26 27  1  0  0  0  0
 27 28  2  0  0  0  0
 28 29  1  0  0  0  0
 30 29  2  0  0  0  0
 31 30  1  0  0  0  0
 32 31  2  0  0  0  0
 32 27  1  0  0  0  0
M  END
>  <minimizedAffinity>
-8.41300964

$$$$

 OpenBabel12271915113D

 32 35  0  0  1  0  0  0  0  0999 V2000
   19.9910   63.2200   33.7590 C   0  0  1  0  0  0  0  0  0  0  0  0
   19.0410   62.3570   34.6370 N   0  0  0  0  0  0  0  0  0  0  0  0
   18.7350   62.9100   35.4090 H   0  0  0  0  0  0  0  0  0  0  0  0
   18.2260   62.0290   34.0940 H   0  0  0  0  0  0  0  0  0  0  0  0
   19.5250   61.5460   34.9750 H   0  0  0  0  0  0  0  0  0  0  0  0
   21.3530   63.2490   34.4610 C   0  0  0  0  0  0  0  0  0  0  0  0
   22.3570   63.8650   33.5530 C   0  0  0  0  0  0  0  0  0  0  0  0
   23.6780   63.3860   33.3660 C   0  0  0  0  0  0  0  0  0  0  0  0
   24.3700   62.2850   33.9520 C   0  0  0  0  0  0  0  0  0  0  0  0
   25.6800   62.0220   33.5830 C   0  0  0  0  0  0  0  0  0  0  0  0
   26.3080   62.8470   32.6350 C   0  0  0  0  0  0  0  0  0  0  0  0
   25.6270   63.9250   32.0500 C   0  0  0  0  0  0  0  0  0  0  0  0
   24.3090   64.1560   32.4370 C   0  0  0  0  0  0  0  0  0  0  0  0
   23.4180   65.1590   32.0170 N   0  0  0  0  0  0  0  0  0  0  0  0
   23.6120   65.8790   31.3720 H   0  0  0  0  0  0  0  0  0  0  0  0
   22.2260   64.9500   32.7060 C   0  0  0  0  0  0  0  0  0  0  0  0
   20.1360   62.4050   32.4290 C   0  0  0  0  0  0  0  0  0  0  0  0
   19.3710   63.2820   31.4650 O   0  0  0  0  0  0  0  0  0  0  0  0
   18.5620   64.3650   31.3920 C   0  0  0  0  0  0  0  0  0  0  0  0
   18.8630   65.6800   31.5030 C   0  0  0  0  0  0  0  0  0  0  0  0
   17.7750   66.6350   31.2120 C   0  0  0  0  0  0  0  0  0  0  0  0
   16.4610   66.1090   30.9040 C   0  0  0  0  0  0  0  0  0  0  0  0
   16.2320   64.8150   30.8820 N   0  0  0  0  0  0  0  0  0  0  0  0
   17.3030   63.9880   31.1400 C   0  0  0  0  0  0  0  0  0  0  0  0
   17.8870   68.0950   31.1810 C   0  0  0  0  0  0  0  0  0  0  0  0
   18.3170   68.8260   32.1820 C   0  0  0  0  0  0  0  0  0  0  0  0
   18.3990   70.3160   32.1750 C   0  0  0  0  0  0  0  0  0  0  0  0
   18.0210   70.9740   31.0120 C   0  0  0  0  0  0  0  0  0  0  0  0
   18.1010   72.3540   31.0070 C   0  0  0  0  0  0  0  0  0  0  0  0
   18.5160   73.0990   32.0430 N   0  0  0  0  0  0  0  0  0  0  0  0
   18.8730   72.4170   33.1510 C   0  0  0  0  0  0  0  0  0  0  0  0
   18.8400   71.0580   33.2790 C   0  0  0  0  0  0  0  0  0  0  0  0
  1 17  1  6  0  0  0
  1  6  1  0  0  0  0
  1  2  1  0  0  0  0
  2  5  1  0  0  0  0
  2  3  1  0  0  0  0
  4  2  1  0  0  0  0
  7  6  1  0  0  0  0
  8  7  1  0  0  0  0
  8  9  2  0  0  0  0
 10  9  1  0  0  0  0
 11 10  2  0  0  0  0
 12 13  2  0  0  0  0
 12 11  1  0  0  0  0
 13  8  1  0  0  0  0
 14 13  1  0  0  0  0
 14 16  1  0  0  0  0
 15 14  1  0  0  0  0
 16  7  2  0  0  0  0
 18 17  1  0  0  0  0
 19 18  1  0  0  0  0
 19 20  1  0  0  0  0
 21 20  2  0  0  0  0
 22 21  1  0  0  0  0
 23 22  2  0  0  0  0
 23 24  1  0  0  0  0
 24 19  2  0  0  0  0
 25 21  1  0  0  0  0
 25 26  2  0  0  0  0
 27 26  1  0  0  0  0
 27 32  2  0  0  0  0
 28 27  1  0  0  0  0
 29 28  2  0  0  0  0
 29 30  1  0  0  0  0
 30 31  2  0  0  0  0
 31 32  1  0  0  0  0
M  END
>  <minimizedAffinity>
-8.39218712

$$$$

 OpenBabel12271915113D

 32 35  0  0  1  0  0  0  0  0999 V2000
   20.1180   64.1220   32.2040 C   0  0  1  0  0  0  0  0  0  0  0  0
   18.6310   64.2760   32.6310 N   0  0  0  0  0  0  0  0  0  0  0  0
   18.4910   65.2090   32.9560 H   0  0  0  0  0  0  0  0  0  0  0  0
   17.9940   64.0770   31.8430 H   0  0  0  0  0  0  0  0  0  0  0  0
   18.4140   63.6280   33.3650 H   0  0  0  0  0  0  0  0  0  0  0  0
   20.9410   63.9510   33.4860 C   0  0  0  0  0  0  0  0  0  0  0  0
   22.3880   63.9790   33.1440 C   0  0  0  0  0  0  0  0  0  0  0  0
   23.3540   63.0710   33.6450 C   0  0  0  0  0  0  0  0  0  0  0  0
   23.2330   61.9770   34.5520 C   0  0  0  0  0  0  0  0  0  0  0  0
   24.3530   61.2270   34.8770 C   0  0  0  0  0  0  0  0  0  0  0  0
   25.5940   61.5580   34.3070 C   0  0  0  0  0  0  0  0  0  0  0  0
   25.7150   62.6280   33.4080 C   0  0  0  0  0  0  0  0  0  0  0  0
   24.5680   63.3550   33.0970 C   0  0  0  0  0  0  0  0  0  0  0  0
   24.4170   64.4630   32.2440 N   0  0  0  0  0  0  0  0  0  0  0  0
   25.1340   64.9090   31.7350 H   0  0  0  0  0  0  0  0  0  0  0  0
   23.0710   64.8170   32.2810 C   0  0  0  0  0  0  0  0  0  0  0  0
   20.1560   62.7730   31.4080 C   0  0  0  0  0  0  0  0  0  0  0  0
   18.9030   62.1000   31.9160 O   0  0  0  0  0  0  0  0  0  0  0  0
   18.3920   60.9060   32.3010 C   0  0  0  0  0  0  0  0  0  0  0  0
   17.1050   60.4900   32.3470 C   0  0  0  0  0  0  0  0  0  0  0  0
   16.8810   59.0650   32.6620 C   0  0  0  0  0  0  0  0  0  0  0  0
   18.0310   58.2380   32.9680 C   0  0  0  0  0  0  0  0  0  0  0  0
   19.2470   58.7360   32.9680 N   0  0  0  0  0  0  0  0  0  0  0  0
   19.3770   60.0670   32.6410 C   0  0  0  0  0  0  0  0  0  0  0  0
   15.5910   58.3720   32.6810 C   0  0  0  0  0  0  0  0  0  0  0  0
   15.4050   57.1420   32.2640 C   0  0  0  0  0  0  0  0  0  0  0  0
   14.0890   56.4400   32.2420 C   0  0  0  0  0  0  0  0  0  0  0  0
   12.9450   57.2230   32.1510 C   0  0  0  0  0  0  0  0  0  0  0  0
   11.7270   56.5700   32.1340 C   0  0  0  0  0  0  0  0  0  0  0  0
   11.5730   55.2390   32.2000 N   0  0  0  0  0  0  0  0  0  0  0  0
   12.7100   54.5190   32.2880 C   0  0  0  0  0  0  0  0  0  0  0  0
   13.9700   55.0450   32.3150 C   0  0  0  0  0  0  0  0  0  0  0  0
  1 17  1  6  0  0  0
  1  2  1  0  0  0  0
  1  6  1  0  0  0  0
  2  3  1  0  0  0  0
  2  5  1  0  0  0  0
  4  2  1  0  0  0  0
  7  6  1  0  0  0  0
  7  8  1  0  0  0  0
  8  9  2  0  0  0  0
  9 10  1  0  0  0  0
 11 10  2  0  0  0  0
 12 11  1  0  0  0  0
 13 12  2  0  0  0  0
 13  8  1  0  0  0  0
 14 16  1  0  0  0  0
 14 13  1  0  0  0  0
 15 14  1  0  0  0  0
 16  7  2  0  0  0  0
 17 18  1  0  0  0  0
 18 19  1  0  0  0  0
 19 20  2  0  0  0  0
 19 24  1  0  0  0  0
 20 21  1  0  0  0  0
 21 25  1  0  0  0  0
 21 22  2  0  0  0  0
 22 23  1  0  0  0  0
 24 23  2  0  0  0  0
 26 25  2  0  0  0  0
 27 26  1  0  0  0  0
 27 32  2  0  0  0  0
 28 27  1  0  0  0  0
 29 28  2  0  0  0  0
 29 30  1  0  0  0  0
 30 31  2  0  0  0  0
 31 32  1  0  0  0  0
M  END
>  <minimizedAffinity>
-8.08999062

$$$$

 OpenBabel12271915113D

 32 35  0  0  1  0  0  0  0  0999 V2000
   19.8800   61.0690   32.7450 C   0  0  1  0  0  0  0  0  0  0  0  0
   19.0110   60.4270   31.6270 N   0  0  0  0  0  0  0  0  0  0  0  0
   19.4460   59.5790   31.3340 H   0  0  0  0  0  0  0  0  0  0  0  0
   18.0530   60.2360   31.9630 H   0  0  0  0  0  0  0  0  0  0  0  0
   18.9370   61.0530   30.8460 H   0  0  0  0  0  0  0  0  0  0  0  0
   21.0710   61.7480   32.0570 C   0  0  0  0  0  0  0  0  0  0  0  0
   22.1110   62.0540   33.0750 C   0  0  0  0  0  0  0  0  0  0  0  0
   22.9580   63.1910   33.0480 C   0  0  0  0  0  0  0  0  0  0  0  0
   23.0590   64.2640   32.1140 C   0  0  0  0  0  0  0  0  0  0  0  0
   23.9810   65.2770   32.3280 C   0  0  0  0  0  0  0  0  0  0  0  0
   24.8060   65.2290   33.4650 C   0  0  0  0  0  0  0  0  0  0  0  0
   24.7030   64.1790   34.3900 C   0  0  0  0  0  0  0  0  0  0  0  0
   23.7590   63.1830   34.1490 C   0  0  0  0  0  0  0  0  0  0  0  0
   23.4620   62.0340   34.9010 N   0  0  0  0  0  0  0  0  0  0  0  0
   23.9070   61.7510   35.7340 H   0  0  0  0  0  0  0  0  0  0  0  0
   22.4410   61.3670   34.2290 C   0  0  0  0  0  0  0  0  0  0  0  0
   18.9640   62.1790   33.3610 C   0  0  0  0  0  0  0  0  0  0  0  0
   18.6210   62.9890   32.1330 O   0  0  0  0  0  0  0  0  0  0  0  0
   18.3990   64.2500   31.6910 C   0  0  0  0  0  0  0  0  0  0  0  0
   17.2970   64.7840   31.1160 C   0  0  0  0  0  0  0  0  0  0  0  0
   17.3070   66.2430   30.8920 C   0  0  0  0  0  0  0  0  0  0  0  0
   18.5070   66.9830   31.2290 C   0  0  0  0  0  0  0  0  0  0  0  0
   19.5640   66.3790   31.7240 N   0  0  0  0  0  0  0  0  0  0  0  0
   19.4680   65.0200   31.9260 C   0  0  0  0  0  0  0  0  0  0  0  0
   16.2020   67.0490   30.3700 C   0  0  0  0  0  0  0  0  0  0  0  0
   15.1540   66.5570   29.7520 C   0  0  0  0  0  0  0  0  0  0  0  0
   14.0420   67.3720   29.1810 C   0  0  0  0  0  0  0  0  0  0  0  0
   13.9820   68.7140   29.5350 C   0  0  0  0  0  0  0  0  0  0  0  0
   12.9480   69.4650   29.0090 C   0  0  0  0  0  0  0  0  0  0  0  0
   12.0030   68.9910   28.1840 N   0  0  0  0  0  0  0  0  0  0  0  0
   12.1000   67.6830   27.8680 C   0  0  0  0  0  0  0  0  0  0  0  0
   13.0710   66.8380   28.3230 C   0  0  0  0  0  0  0  0  0  0  0  0
  1  6  1  6  0  0  0
  1 17  1  0  0  0  0
  2  4  1  0  0  0  0
  2  1  1  0  0  0  0
  3  2  1  0  0  0  0
  5  2  1  0  0  0  0
  6  7  1  0  0  0  0
  7 16  2  0  0  0  0
  8  7  1  0  0  0  0
  8 13  2  0  0  0  0
  9 10  2  0  0  0  0
  9  8  1  0  0  0  0
 10 11  1  0  0  0  0
 11 12  2  0  0  0  0
 13 12  1  0  0  0  0
 13 14  1  0  0  0  0
 14 15  1  0  0  0  0
 16 14  1  0  0  0  0
 18 17  1  0  0  0  0
 19 24  2  0  0  0  0
 19 18  1  0  0  0  0
 20 19  1  0  0  0  0
 21 20  2  0  0  0  0
 21 22  1  0  0  0  0
 22 23  2  0  0  0  0
 23 24  1  0  0  0  0
 25 21  1  0  0  0  0
 26 25  2  0  0  0  0
 27 28  1  0  0  0  0
 27 26  1  0  0  0  0
 29 28  2  0  0  0  0
 30 29  1  0  0  0  0
 31 30  2  0  0  0  0
 31 32  1  0  0  0  0
 32 27  2  0  0  0  0
M  END
>  <minimizedAffinity>
-7.87136698

$$$$

 OpenBabel12271915113D

 32 35  0  0  1  0  0  0  0  0999 V2000
   23.3520   61.5530   34.1180 C   0  0  1  0  0  0  0  0  0  0  0  0
   23.7360   60.6990   35.3600 N   0  0  0  0  0  0  0  0  0  0  0  0
   23.1640   59.8820   35.3710 H   0  0  0  0  0  0  0  0  0  0  0  0
   24.7330   60.4310   35.3340 H   0  0  0  0  0  0  0  0  0  0  0  0
   23.5870   61.2260   36.2000 H   0  0  0  0  0  0  0  0  0  0  0  0
   22.0540   62.2930   34.4620 C   0  0  0  0  0  0  0  0  0  0  0  0
   20.9890   61.8770   33.5120 C   0  0  0  0  0  0  0  0  0  0  0  0
   20.0780   62.7610   32.8820 C   0  0  0  0  0  0  0  0  0  0  0  0
   19.9230   64.1760   32.9800 C   0  0  0  0  0  0  0  0  0  0  0  0
   18.9410   64.8130   32.2360 C   0  0  0  0  0  0  0  0  0  0  0  0
   18.1110   64.0520   31.3950 C   0  0  0  0  0  0  0  0  0  0  0  0
   18.2670   62.6620   31.2900 C   0  0  0  0  0  0  0  0  0  0  0  0
   19.2690   62.0550   32.0440 C   0  0  0  0  0  0  0  0  0  0  0  0
   19.6270   60.6980   32.1280 N   0  0  0  0  0  0  0  0  0  0  0  0
   19.1920   59.9500   31.6550 H   0  0  0  0  0  0  0  0  0  0  0  0
   20.6910   60.6180   33.0230 C   0  0  0  0  0  0  0  0  0  0  0  0
   24.5060   62.6060   33.9980 C   0  0  0  0  0  0  0  0  0  0  0  0
   23.9810   63.4870   32.8880 O   0  0  0  0  0  0  0  0  0  0  0  0
   23.8510   64.7770   32.4960 C   0  0  0  0  0  0  0  0  0  0  0  0
   22.7440   65.4590   32.1180 C   0  0  0  0  0  0  0  0  0  0  0  0
   22.9030   66.9100   31.9020 C   0  0  0  0  0  0  0  0  0  0  0  0
   24.2260   67.4860   32.0360 C   0  0  0  0  0  0  0  0  0  0  0  0
   25.2650   66.7420   32.3420 N   0  0  0  0  0  0  0  0  0  0  0  0
   25.0330   65.4010   32.5510 C   0  0  0  0  0  0  0  0  0  0  0  0
   21.8380   67.8610   31.5780 C   0  0  0  0  0  0  0  0  0  0  0  0
   20.6260   67.8140   32.0780 C   0  0  0  0  0  0  0  0  0  0  0  0
   19.5220   68.7540   31.7250 C   0  0  0  0  0  0  0  0  0  0  0  0
   18.7760   68.4700   30.5880 C   0  0  0  0  0  0  0  0  0  0  0  0
   17.7560   69.3440   30.2620 C   0  0  0  0  0  0  0  0  0  0  0  0
   17.4380   70.4430   30.9630 N   0  0  0  0  0  0  0  0  0  0  0  0
   18.1890   70.6790   32.0580 C   0  0  0  0  0  0  0  0  0  0  0  0
   19.2210   69.8940   32.4840 C   0  0  0  0  0  0  0  0  0  0  0  0
  1 17  1  1  0  0  0
  1  6  1  0  0  0  0
  1  2  1  0  0  0  0
  2  3  1  0  0  0  0
  2  5  1  0  0  0  0
  4  2  1  0  0  0  0
  7  6  1  0  0  0  0
  8  9  1  0  0  0  0
  8  7  1  0  0  0  0
 10  9  2  0  0  0  0
 11 10  1  0  0  0  0
 12 11  2  0  0  0  0
 12 13  1  0  0  0  0
 13 14  1  0  0  0  0
 13  8  2  0  0  0  0
 14 16  1  0  0  0  0
 15 14  1  0  0  0  0
 16  7  2  0  0  0  0
 18 17  1  0  0  0  0
 19 24  1  0  0  0  0
 19 18  1  0  0  0  0
 20 19  2  0  0  0  0
 21 22  2  0  0  0  0
 21 20  1  0  0  0  0
 22 23  1  0  0  0  0
 23 24  2  0  0  0  0
 25 21  1  0  0  0  0
 25 26  2  0  0  0  0
 27 26  1  0  0  0  0
 27 32  2  0  0  0  0
 28 27  1  0  0  0  0
 29 28  2  0  0  0  0
 29 30  1  0  0  0  0
 30 31  2  0  0  0  0
 31 32  1  0  0  0  0
M  END
>  <minimizedAffinity>
-7.85176516

$$$$

 OpenBabel12271915113D

 32 35  0  0  1  0  0  0  0  0999 V2000
   20.0600   63.5670   32.3690 C   0  0  1  0  0  0  0  0  0  0  0  0
   20.5540   62.7030   31.1740 N   0  0  0  0  0  0  0  0  0  0  0  0
   21.0030   61.8900   31.5360 H   0  0  0  0  0  0  0  0  0  0  0  0
   19.7680   62.4300   30.5620 H   0  0  0  0  0  0  0  0  0  0  0  0
   21.2030   63.2260   30.6150 H   0  0  0  0  0  0  0  0  0  0  0  0
   21.2800   64.3130   32.9220 C   0  0  0  0  0  0  0  0  0  0  0  0
   22.2540   63.3250   33.4560 C   0  0  0  0  0  0  0  0  0  0  0  0
   23.6230   63.2620   33.0920 C   0  0  0  0  0  0  0  0  0  0  0  0
   24.3890   64.0460   32.1800 C   0  0  0  0  0  0  0  0  0  0  0  0
   25.7400   63.7800   32.0110 C   0  0  0  0  0  0  0  0  0  0  0  0
   26.3340   62.7380   32.7430 C   0  0  0  0  0  0  0  0  0  0  0  0
   25.5850   61.9710   33.6470 C   0  0  0  0  0  0  0  0  0  0  0  0
   24.2330   62.2700   33.7990 C   0  0  0  0  0  0  0  0  0  0  0  0
   23.2690   61.6600   34.6200 N   0  0  0  0  0  0  0  0  0  0  0  0
   23.4180   60.8910   35.2210 H   0  0  0  0  0  0  0  0  0  0  0  0
   22.0700   62.3330   34.4010 C   0  0  0  0  0  0  0  0  0  0  0  0
   19.0920   64.6140   31.7190 C   0  0  0  0  0  0  0  0  0  0  0  0
   17.9580   63.7220   31.2690 O   0  0  0  0  0  0  0  0  0  0  0  0
   16.8780   63.0340   31.7100 C   0  0  0  0  0  0  0  0  0  0  0  0
   16.7060   61.7010   31.8670 C   0  0  0  0  0  0  0  0  0  0  0  0
   15.4590   61.2670   32.5280 C   0  0  0  0  0  0  0  0  0  0  0  0
   14.4860   62.2770   32.8920 C   0  0  0  0  0  0  0  0  0  0  0  0
   14.6990   63.5500   32.6440 N   0  0  0  0  0  0  0  0  0  0  0  0
   15.8960   63.8780   32.0470 C   0  0  0  0  0  0  0  0  0  0  0  0
   15.0970   59.8930   32.8820 C   0  0  0  0  0  0  0  0  0  0  0  0
   15.8650   58.8490   32.6800 C   0  0  0  0  0  0  0  0  0  0  0  0
   15.4910   57.4410   33.0020 C   0  0  0  0  0  0  0  0  0  0  0  0
   16.1090   56.8460   34.0950 C   0  0  0  0  0  0  0  0  0  0  0  0
   15.7630   55.5410   34.3880 C   0  0  0  0  0  0  0  0  0  0  0  0
   14.8770   54.8110   33.6940 N   0  0  0  0  0  0  0  0  0  0  0  0
   14.3030   55.4280   32.6410 C   0  0  0  0  0  0  0  0  0  0  0  0
   14.5610   56.7110   32.2500 C   0  0  0  0  0  0  0  0  0  0  0  0
  1 17  1  6  0  0  0
  1  6  1  0  0  0  0
  2  3  1  0  0  0  0
  2  1  1  0  0  0  0
  4  2  1  0  0  0  0
  5  2  1  0  0  0  0
  6  7  1  0  0  0  0
  7 16  2  0  0  0  0
  8  7  1  0  0  0  0
  8 13  2  0  0  0  0
  9  8  1  0  0  0  0
 10  9  2  0  0  0  0
 10 11  1  0  0  0  0
 11 12  2  0  0  0  0
 12 13  1  0  0  0  0
 13 14  1  0  0  0  0
 14 15  1  0  0  0  0
 16 14  1  0  0  0  0
 18 19  1  0  0  0  0
 18 17  1  0  0  0  0
 19 20  2  0  0  0  0
 19 24  1  0  0  0  0
 20 21  1  0  0  0  0
 21 25  1  0  0  0  0
 21 22  2  0  0  0  0
 23 22  1  0  0  0  0
 24 23  2  0  0  0  0
 26 25  2  0  0  0  0
 26 27  1  0  0  0  0
 27 28  2  0  0  0  0
 28 29  1  0  0  0  0
 30 29  2  0  0  0  0
 31 30  1  0  0  0  0
 32 31  2  0  0  0  0
 32 27  1  0  0  0  0
M  END
>  <minimizedAffinity>
-7.83857441

$$$$

 OpenBabel12271915113D

 32 35  0  0  1  0  0  0  0  0999 V2000
   23.4560   65.7210   32.6090 C   0  0  1  0  0  0  0  0  0  0  0  0
   23.1310   64.5280   31.6650 N   0  0  0  0  0  0  0  0  0  0  0  0
   23.2220   63.6810   32.1830 H   0  0  0  0  0  0  0  0  0  0  0  0
   22.1760   64.6070   31.2800 H   0  0  0  0  0  0  0  0  0  0  0  0
   23.7690   64.5180   30.8910 H   0  0  0  0  0  0  0  0  0  0  0  0
   24.9820   65.7930   32.7370 C   0  0  0  0  0  0  0  0  0  0  0  0
   25.5410   64.4160   32.6940 C   0  0  0  0  0  0  0  0  0  0  0  0
   25.3340   63.4290   33.6900 C   0  0  0  0  0  0  0  0  0  0  0  0
   24.6090   63.4720   34.9180 C   0  0  0  0  0  0  0  0  0  0  0  0
   24.5530   62.3440   35.7230 C   0  0  0  0  0  0  0  0  0  0  0  0
   25.2150   61.1730   35.3160 C   0  0  0  0  0  0  0  0  0  0  0  0
   25.9210   61.1260   34.1040 C   0  0  0  0  0  0  0  0  0  0  0  0
   25.9490   62.2730   33.3160 C   0  0  0  0  0  0  0  0  0  0  0  0
   26.5810   62.4930   32.0800 N   0  0  0  0  0  0  0  0  0  0  0  0
   27.1290   61.8410   31.5810 H   0  0  0  0  0  0  0  0  0  0  0  0
   26.3050   63.8080   31.7150 C   0  0  0  0  0  0  0  0  0  0  0  0
   22.9640   66.9830   31.8230 C   0  0  0  0  0  0  0  0  0  0  0  0
   21.4650   66.8030   31.8920 O   0  0  0  0  0  0  0  0  0  0  0  0
   20.2920   67.4780   31.9460 C   0  0  0  0  0  0  0  0  0  0  0  0
   20.0550   68.7820   32.2220 C   0  0  0  0  0  0  0  0  0  0  0  0
   18.6690   69.2560   32.0420 C   0  0  0  0  0  0  0  0  0  0  0  0
   17.6560   68.2920   31.6590 C   0  0  0  0  0  0  0  0  0  0  0  0
   17.9550   67.0260   31.4750 N   0  0  0  0  0  0  0  0  0  0  0  0
   19.2740   66.6650   31.6380 C   0  0  0  0  0  0  0  0  0  0  0  0
   18.1960   70.6330   32.1930 C   0  0  0  0  0  0  0  0  0  0  0  0
   18.7590   71.5280   32.9690 C   0  0  0  0  0  0  0  0  0  0  0  0
   18.2630   72.9220   33.1610 C   0  0  0  0  0  0  0  0  0  0  0  0
   17.1940   73.1100   34.0280 C   0  0  0  0  0  0  0  0  0  0  0  0
   16.7340   74.4020   34.2000 C   0  0  0  0  0  0  0  0  0  0  0  0
   17.2450   75.4820   33.5920 N   0  0  0  0  0  0  0  0  0  0  0  0
   18.2810   75.2530   32.7590 C   0  0  0  0  0  0  0  0  0  0  0  0
   18.8240   74.0260   32.5040 C   0  0  0  0  0  0  0  0  0  0  0  0
  1 17  1  6  0  0  0
  1  6  1  0  0  0  0
  2  3  1  0  0  0  0
  2  1  1  0  0  0  0
  4  2  1  0  0  0  0
  5  2  1  0  0  0  0
  7  6  1  0  0  0  0
  7  8  1  0  0  0  0
  8  9  1  0  0  0  0
  9 10  2  0  0  0  0
 11 10  1  0  0  0  0
 12 11  2  0  0  0  0
 13  8  2  0  0  0  0
 13 12  1  0  0  0  0
 14 13  1  0  0  0  0
 15 14  1  0  0  0  0
 16 14  1  0  0  0  0
 16  7  2  0  0  0  0
 17 18  1  0  0  0  0
 18 19  1  0  0  0  0
 19 20  2  0  0  0  0
 21 25  1  0  0  0  0
 21 20  1  0  0  0  0
 22 21  2  0  0  0  0
 23 24  2  0  0  0  0
 23 22  1  0  0  0  0
 24 19  1  0  0  0  0
 25 26  2  0  0  0  0
 26 27  1  0  0  0  0
 27 28  2  0  0  0  0
 28 29  1  0  0  0  0
 30 29  2  0  0  0  0
 31 30  1  0  0  0  0
 32 31  2  0  0  0  0
 32 27  1  0  0  0  0
M  END
>  <minimizedAffinity>
-7.71186066

$$$$
