
 OpenBabel12271915233D

 27 29  0  0  1  0  0  0  0  0999 V2000
   22.8410   62.7670   33.0900 C   0  0  1  0  0  0  0  0  0  0  0  0
   22.6850   62.5160   34.5250 N   0  0  0  0  0  0  0  0  0  0  0  0
   22.2080   63.3430   35.0200 H   0  0  0  0  0  0  0  0  0  0  0  0
   21.7090   61.4900   34.6080 O   0  0  0  0  0  0  0  0  0  0  0  0
   20.7310   61.6790   33.5910 C   0  0  2  0  0  0  0  0  0  0  0  0
   19.6220   62.6020   34.2010 C   0  0  1  0  0  0  0  0  0  0  0  0
   18.3020   62.6060   33.3600 C   0  0  2  0  0  0  0  0  0  0  0  0
   18.1590   61.3510   32.4300 C   0  0  1  0  0  0  0  0  0  0  0  0
   18.8730   60.1590   33.1010 C   0  0  2  0  0  0  0  0  0  0  0  0
   20.2900   60.3970   33.1550 O   0  0  0  0  0  0  0  0  0  0  0  0
   21.4920   62.3580   32.4670 C   0  0  0  0  0  0  0  0  0  0  0  0
   23.3320   64.1560   32.7420 C   0  0  0  0  0  0  0  0  0  0  0  0
   22.3650   65.1460   32.3820 C   0  0  0  0  0  0  0  0  0  0  0  0
   22.7690   66.4340   31.9850 C   0  0  0  0  0  0  0  0  0  0  0  0
   24.1140   66.7740   31.9460 C   0  0  0  0  0  0  0  0  0  0  0  0
   24.5460   68.1560   31.5560 C   0  0  0  0  0  0  0  0  0  0  0  0
   25.0610   65.8340   32.3540 C   0  0  0  0  0  0  0  0  0  0  0  0
   24.6720   64.5460   32.7680 C   0  0  0  0  0  0  0  0  0  0  0  0
   18.0650   63.7180   32.5110 O   0  0  0  0  0  0  0  0  0  0  0  0
   18.6080   64.4790   32.7900 H   0  0  0  0  0  0  0  0  0  0  0  0
   19.2490   62.1530   35.5190 O   0  0  0  0  0  0  0  0  0  0  0  0
   20.0670   61.7320   35.9020 H   0  0  0  0  0  0  0  0  0  0  0  0
   16.7640   61.0680   32.1910 O   0  0  0  0  0  0  0  0  0  0  0  0
   16.3240   61.9810   32.1220 H   0  0  0  0  0  0  0  0  0  0  0  0
   18.6240   58.7460   32.5100 C   0  0  0  0  0  0  0  0  0  0  0  0
   19.6820   57.8360   32.7090 O   0  0  0  0  0  0  0  0  0  0  0  0
   20.3100   58.2800   33.3850 H   0  0  0  0  0  0  0  0  0  0  0  0
  1 12  1  1  0  0  0
  1  2  1  0  0  0  0
  2  4  1  0  0  0  0
  2  3  1  0  0  0  0
  5 11  1  6  0  0  0
  5  4  1  0  0  0  0
  6  5  1  6  0  0  0
  6 21  1  0  0  0  0
  7 19  1  6  0  0  0
  7  6  1  0  0  0  0
  8 23  1  1  0  0  0
  8  9  1  0  0  0  0
  8  7  1  0  0  0  0
  9 25  1  6  0  0  0
  9 10  1  0  0  0  0
 10  5  1  0  0  0  0
 11  1  1  0  0  0  0
 12 18  1  0  0  0  0
 13 12  2  0  0  0  0
 14 13  1  0  0  0  0
 15 14  2  0  0  0  0
 15 17  1  0  0  0  0
 16 15  1  0  0  0  0
 17 18  2  0  0  0  0
 19 20  1  0  0  0  0
 21 22  1  0  0  0  0
 24 23  1  0  0  0  0
 25 26  1  0  0  0  0
 26 27  1  0  0  0  0
M  END
>  <minimizedAffinity>
-8.32033062

$$$$

 OpenBabel12271915233D

 27 29  0  0  1  0  0  0  0  0999 V2000
   21.7380   63.4470   32.0190 C   0  0  1  0  0  0  0  0  0  0  0  0
   22.2480   64.7200   32.5370 N   0  0  0  0  0  0  0  0  0  0  0  0
   21.9840   64.8590   33.5700 H   0  0  0  0  0  0  0  0  0  0  0  0
   23.6560   64.5500   32.5880 O   0  0  0  0  0  0  0  0  0  0  0  0
   23.9610   63.2100   32.9620 C   0  0  2  0  0  0  0  0  0  0  0  0
   24.0330   63.1860   34.5260 C   0  0  1  0  0  0  0  0  0  0  0  0
   24.7190   61.8950   35.0840 C   0  0  2  0  0  0  0  0  0  0  0  0
   25.6300   61.1750   34.0310 C   0  0  1  0  0  0  0  0  0  0  0  0
   26.2080   62.2390   33.0730 C   0  0  2  0  0  0  0  0  0  0  0  0
   25.1530   62.8210   32.2880 O   0  0  0  0  0  0  0  0  0  0  0  0
   22.7930   62.4020   32.4260 C   0  0  0  0  0  0  0  0  0  0  0  0
   20.3110   63.1310   32.4150 C   0  0  0  0  0  0  0  0  0  0  0  0
   19.2880   63.2680   31.4250 C   0  0  0  0  0  0  0  0  0  0  0  0
   17.9370   63.0530   31.7550 C   0  0  0  0  0  0  0  0  0  0  0  0
   17.5710   62.6920   33.0430 C   0  0  0  0  0  0  0  0  0  0  0  0
   16.1360   62.4290   33.3880 C   0  0  0  0  0  0  0  0  0  0  0  0
   18.5680   62.4970   33.9990 C   0  0  0  0  0  0  0  0  0  0  0  0
   19.9250   62.6930   33.6820 C   0  0  0  0  0  0  0  0  0  0  0  0
   23.8810   60.8730   35.6010 O   0  0  0  0  0  0  0  0  0  0  0  0
   23.0020   61.2350   35.8190 H   0  0  0  0  0  0  0  0  0  0  0  0
   24.8120   64.2930   35.0210 O   0  0  0  0  0  0  0  0  0  0  0  0
   24.6870   65.0280   34.3600 H   0  0  0  0  0  0  0  0  0  0  0  0
   26.6770   60.4390   34.7000 O   0  0  0  0  0  0  0  0  0  0  0  0
   26.2370   60.0710   35.5370 H   0  0  0  0  0  0  0  0  0  0  0  0
   27.3580   61.8060   32.1260 C   0  0  0  0  0  0  0  0  0  0  0  0
   27.8450   60.5040   32.3590 O   0  0  0  0  0  0  0  0  0  0  0  0
   27.1750   60.0630   32.9970 H   0  0  0  0  0  0  0  0  0  0  0  0
  1 12  1  1  0  0  0
  1 11  1  0  0  0  0
  1  2  1  0  0  0  0
  2  4  1  0  0  0  0
  2  3  1  0  0  0  0
  4  5  1  0  0  0  0
  5 11  1  6  0  0  0
  6  5  1  6  0  0  0
  6 21  1  0  0  0  0
  6  7  1  0  0  0  0
  7 19  1  6  0  0  0
  8 23  1  1  0  0  0
  8  7  1  0  0  0  0
  9 25  1  6  0  0  0
  9  8  1  0  0  0  0
 10  5  1  0  0  0  0
 10  9  1  0  0  0  0
 12 18  2  0  0  0  0
 13 14  2  0  0  0  0
 13 12  1  0  0  0  0
 14 15  1  0  0  0  0
 15 16  1  0  0  0  0
 15 17  2  0  0  0  0
 18 17  1  0  0  0  0
 19 20  1  0  0  0  0
 22 21  1  0  0  0  0
 23 24  1  0  0  0  0
 25 26  1  0  0  0  0
 26 27  1  0  0  0  0
M  END
>  <minimizedAffinity>
-8.21262455

$$$$

 OpenBabel12271915233D

 27 29  0  0  1  0  0  0  0  0999 V2000
   22.8090   66.7450   31.6030 C   0  0  1  0  0  0  0  0  0  0  0  0
   23.7520   67.4790   32.4530 N   0  0  0  0  0  0  0  0  0  0  0  0
   23.4010   67.5420   33.4670 H   0  0  0  0  0  0  0  0  0  0  0  0
   24.8800   66.6260   32.5590 O   0  0  0  0  0  0  0  0  0  0  0  0
   24.4500   65.2700   32.6110 C   0  0  2  0  0  0  0  0  0  0  0  0
   24.2160   64.9310   34.1220 C   0  0  1  0  0  0  0  0  0  0  0  0
   24.1040   63.3930   34.3920 C   0  0  2  0  0  0  0  0  0  0  0  0
   24.7470   62.5200   33.2600 C   0  0  1  0  0  0  0  0  0  0  0  0
   25.9180   63.3080   32.6360 C   0  0  2  0  0  0  0  0  0  0  0  0
   25.4210   64.4690   31.9470 O   0  0  0  0  0  0  0  0  0  0  0  0
   23.1590   65.2600   31.8130 C   0  0  0  0  0  0  0  0  0  0  0  0
   21.3550   67.1150   31.8090 C   0  0  0  0  0  0  0  0  0  0  0  0
   21.0130   68.5020   31.8750 C   0  0  0  0  0  0  0  0  0  0  0  0
   19.6890   68.9030   32.1320 C   0  0  0  0  0  0  0  0  0  0  0  0
   18.6860   67.9620   32.3130 C   0  0  0  0  0  0  0  0  0  0  0  0
   17.2680   68.3860   32.5520 C   0  0  0  0  0  0  0  0  0  0  0  0
   18.9990   66.6080   32.1890 C   0  0  0  0  0  0  0  0  0  0  0  0
   20.3160   66.1900   31.9180 C   0  0  0  0  0  0  0  0  0  0  0  0
   22.8080   62.8500   34.5810 O   0  0  0  0  0  0  0  0  0  0  0  0
   22.1770   63.5540   34.8200 H   0  0  0  0  0  0  0  0  0  0  0  0
   25.3180   65.3940   34.9280 O   0  0  0  0  0  0  0  0  0  0  0  0
   25.6740   66.2000   34.4610 H   0  0  0  0  0  0  0  0  0  0  0  0
   25.1870   61.2540   33.7980 O   0  0  0  0  0  0  0  0  0  0  0  0
   24.4810   61.0090   34.4870 H   0  0  0  0  0  0  0  0  0  0  0  0
   26.8820   62.5400   31.6950 C   0  0  0  0  0  0  0  0  0  0  0  0
   27.3880   61.3390   32.2320 O   0  0  0  0  0  0  0  0  0  0  0  0
   26.8340   61.1530   33.0740 H   0  0  0  0  0  0  0  0  0  0  0  0
  1 12  1  1  0  0  0
  1 11  1  0  0  0  0
  1  2  1  0  0  0  0
  2  4  1  0  0  0  0
  2  3  1  0  0  0  0
  4  5  1  0  0  0  0
  5 11  1  6  0  0  0
  6  5  1  6  0  0  0
  6  7  1  0  0  0  0
  6 21  1  0  0  0  0
  7 19  1  6  0  0  0
  8 23  1  1  0  0  0
  8  7  1  0  0  0  0
  9 25  1  6  0  0  0
  9  8  1  0  0  0  0
 10  5  1  0  0  0  0
 10  9  1  0  0  0  0
 12 13  2  0  0  0  0
 12 18  1  0  0  0  0
 13 14  1  0  0  0  0
 14 15  2  0  0  0  0
 15 16  1  0  0  0  0
 17 15  1  0  0  0  0
 18 17  2  0  0  0  0
 19 20  1  0  0  0  0
 22 21  1  0  0  0  0
 23 24  1  0  0  0  0
 25 26  1  0  0  0  0
 26 27  1  0  0  0  0
M  END
>  <minimizedAffinity>
-8.20145893

$$$$

 OpenBabel12271915233D

 27 29  0  0  1  0  0  0  0  0999 V2000
   19.2210   67.1910   31.4820 C   0  0  1  0  0  0  0  0  0  0  0  0
   18.3740   67.1610   32.6780 N   0  0  0  0  0  0  0  0  0  0  0  0
   18.8460   67.6560   33.5080 H   0  0  0  0  0  0  0  0  0  0  0  0
   17.2870   68.0200   32.3720 O   0  0  0  0  0  0  0  0  0  0  0  0
   17.7520   69.1190   31.5960 C   0  0  2  0  0  0  0  0  0  0  0  0
   18.1780   70.2350   32.6080 C   0  0  1  0  0  0  0  0  0  0  0  0
   18.3580   71.6350   31.9310 C   0  0  2  0  0  0  0  0  0  0  0  0
   17.6000   71.7620   30.5650 C   0  0  1  0  0  0  0  0  0  0  0  0
   16.3430   70.8680   30.6150 C   0  0  2  0  0  0  0  0  0  0  0  0
   16.7240   69.4820   30.6800 O   0  0  0  0  0  0  0  0  0  0  0  0
   18.9340   68.5550   30.8280 C   0  0  0  0  0  0  0  0  0  0  0  0
   20.6800   66.8750   31.7340 C   0  0  0  0  0  0  0  0  0  0  0  0
   21.0260   65.5470   32.1330 C   0  0  0  0  0  0  0  0  0  0  0  0
   22.3560   65.2140   32.4460 C   0  0  0  0  0  0  0  0  0  0  0  0
   23.3630   66.1650   32.3620 C   0  0  0  0  0  0  0  0  0  0  0  0
   24.7870   65.8050   32.6610 C   0  0  0  0  0  0  0  0  0  0  0  0
   23.0440   67.4480   31.9140 C   0  0  0  0  0  0  0  0  0  0  0  0
   21.7210   67.7920   31.5840 C   0  0  0  0  0  0  0  0  0  0  0  0
   19.6800   72.0700   31.6580 O   0  0  0  0  0  0  0  0  0  0  0  0
   20.3190   71.5740   32.2020 H   0  0  0  0  0  0  0  0  0  0  0  0
   17.1740   70.4150   33.6270 O   0  0  0  0  0  0  0  0  0  0  0  0
   16.7450   69.5230   33.7420 H   0  0  0  0  0  0  0  0  0  0  0  0
   17.2600   73.1420   30.3120 O   0  0  0  0  0  0  0  0  0  0  0  0
   18.0500   73.6710   30.6670 H   0  0  0  0  0  0  0  0  0  0  0  0
   15.2880   71.0460   29.4920 C   0  0  0  0  0  0  0  0  0  0  0  0
   15.7460   71.7680   28.3720 O   0  0  0  0  0  0  0  0  0  0  0  0
   16.7610   71.8460   28.4830 H   0  0  0  0  0  0  0  0  0  0  0  0
  1 12  1  1  0  0  0
  1  2  1  0  0  0  0
  2  3  1  0  0  0  0
  4  2  1  0  0  0  0
  5 11  1  6  0  0  0
  5  4  1  0  0  0  0
  6  5  1  6  0  0  0
  6 21  1  0  0  0  0
  7 19  1  6  0  0  0
  7  6  1  0  0  0  0
  8 23  1  1  0  0  0
  8  9  1  0  0  0  0
  8  7  1  0  0  0  0
  9 25  1  6  0  0  0
  9 10  1  0  0  0  0
 10  5  1  0  0  0  0
 11  1  1  0  0  0  0
 12 13  1  0  0  0  0
 13 14  2  0  0  0  0
 15 14  1  0  0  0  0
 15 16  1  0  0  0  0
 17 15  2  0  0  0  0
 18 12  2  0  0  0  0
 18 17  1  0  0  0  0
 19 20  1  0  0  0  0
 21 22  1  0  0  0  0
 23 24  1  0  0  0  0
 26 27  1  0  0  0  0
 26 25  1  0  0  0  0
M  END
>  <minimizedAffinity>
-8.13364124

$$$$

 OpenBabel12271915233D

 27 29  0  0  1  0  0  0  0  0999 V2000
   20.1650   63.4110   34.2940 C   0  0  1  0  0  0  0  0  0  0  0  0
   19.7600   64.2930   33.1960 N   0  0  0  0  0  0  0  0  0  0  0  0
   20.1770   63.9720   32.2580 H   0  0  0  0  0  0  0  0  0  0  0  0
   18.3730   64.0460   33.0270 O   0  0  0  0  0  0  0  0  0  0  0  0
   18.1040   62.6660   33.2530 C   0  0  2  0  0  0  0  0  0  0  0  0
   18.2660   61.9450   31.8730 C   0  0  1  0  0  0  0  0  0  0  0  0
   17.6490   60.5070   31.8600 C   0  0  2  0  0  0  0  0  0  0  0  0
   16.5780   60.2850   32.9830 C   0  0  1  0  0  0  0  0  0  0  0  0
   15.8830   61.6320   33.2720 C   0  0  2  0  0  0  0  0  0  0  0  0
   16.8180   62.5560   33.8540 O   0  0  0  0  0  0  0  0  0  0  0  0
   19.1640   62.2410   34.2530 C   0  0  0  0  0  0  0  0  0  0  0  0
   21.6290   63.0270   34.2870 C   0  0  0  0  0  0  0  0  0  0  0  0
   21.9730   61.6670   34.5660 C   0  0  0  0  0  0  0  0  0  0  0  0
   23.3200   61.2680   34.6390 C   0  0  0  0  0  0  0  0  0  0  0  0
   24.3420   62.1820   34.4290 C   0  0  0  0  0  0  0  0  0  0  0  0
   25.7780   61.7520   34.4730 C   0  0  0  0  0  0  0  0  0  0  0  0
   24.0150   63.4970   34.0960 C   0  0  0  0  0  0  0  0  0  0  0  0
   22.6730   63.9090   34.0050 C   0  0  0  0  0  0  0  0  0  0  0  0
   18.5370   59.4070   31.9790 O   0  0  0  0  0  0  0  0  0  0  0  0
   19.4450   59.6780   31.7480 H   0  0  0  0  0  0  0  0  0  0  0  0
   17.5890   62.6750   30.8300 O   0  0  0  0  0  0  0  0  0  0  0  0
   17.6270   63.6330   31.1030 H   0  0  0  0  0  0  0  0  0  0  0  0
   15.6310   59.2750   32.5740 O   0  0  0  0  0  0  0  0  0  0  0  0
   16.1840   58.5960   32.0610 H   0  0  0  0  0  0  0  0  0  0  0  0
   14.5970   61.6060   34.1400 C   0  0  0  0  0  0  0  0  0  0  0  0
   14.6330   60.6890   35.2090 O   0  0  0  0  0  0  0  0  0  0  0  0
   15.6070   60.3780   35.2790 H   0  0  0  0  0  0  0  0  0  0  0  0
  1 12  1  6  0  0  0
  2  1  1  0  0  0  0
  3  2  1  0  0  0  0
  4  2  1  0  0  0  0
  4  5  1  0  0  0  0
  5 10  1  0  0  0  0
  5 11  1  1  0  0  0
  6  5  1  1  0  0  0
  7  6  1  0  0  0  0
  7 19  1  1  0  0  0
  7  8  1  0  0  0  0
  8 23  1  6  0  0  0
  8  9  1  0  0  0  0
  9 10  1  0  0  0  0
  9 25  1  1  0  0  0
 11  1  1  0  0  0  0
 12 13  2  0  0  0  0
 13 14  1  0  0  0  0
 15 16  1  0  0  0  0
 15 14  2  0  0  0  0
 17 15  1  0  0  0  0
 18 17  2  0  0  0  0
 18 12  1  0  0  0  0
 20 19  1  0  0  0  0
 21 22  1  0  0  0  0
 21  6  1  0  0  0  0
 24 23  1  0  0  0  0
 25 26  1  0  0  0  0
 26 27  1  0  0  0  0
M  END
>  <minimizedAffinity>
-8.03156471

$$$$

 OpenBabel12271915233D

 27 29  0  0  1  0  0  0  0  0999 V2000
   19.8560   68.1560   31.4580 C   0  0  1  0  0  0  0  0  0  0  0  0
   19.5160   68.2220   30.0340 N   0  0  0  0  0  0  0  0  0  0  0  0
   19.6090   67.2600   29.5620 H   0  0  0  0  0  0  0  0  0  0  0  0
   18.1160   68.4540   30.0080 O   0  0  0  0  0  0  0  0  0  0  0  0
   17.4950   67.7460   31.0750 C   0  0  2  0  0  0  0  0  0  0  0  0
   17.1370   66.3250   30.5230 C   0  0  1  0  0  0  0  0  0  0  0  0
   16.1240   65.5540   31.4340 C   0  0  2  0  0  0  0  0  0  0  0  0
   15.2980   66.4990   32.3740 C   0  0  1  0  0  0  0  0  0  0  0  0
   15.1210   67.8610   31.6710 C   0  0  2  0  0  0  0  0  0  0  0  0
   16.3940   68.5180   31.5400 O   0  0  0  0  0  0  0  0  0  0  0  0
   18.5620   67.6920   32.1540 C   0  0  0  0  0  0  0  0  0  0  0  0
   21.0990   67.3500   31.7730 C   0  0  0  0  0  0  0  0  0  0  0  0
   22.3670   68.0050   31.6930 C   0  0  0  0  0  0  0  0  0  0  0  0
   23.5590   67.2890   31.9090 C   0  0  0  0  0  0  0  0  0  0  0  0
   23.5280   65.9370   32.2170 C   0  0  0  0  0  0  0  0  0  0  0  0
   24.7940   65.1790   32.4810 C   0  0  0  0  0  0  0  0  0  0  0  0
   22.2920   65.3040   32.3570 C   0  0  0  0  0  0  0  0  0  0  0  0
   21.0900   66.0090   32.1580 C   0  0  0  0  0  0  0  0  0  0  0  0
   16.6410   64.5480   32.2890 O   0  0  0  0  0  0  0  0  0  0  0  0
   17.5190   64.2570   31.9780 H   0  0  0  0  0  0  0  0  0  0  0  0
   16.5100   66.4210   29.2280 O   0  0  0  0  0  0  0  0  0  0  0  0
   16.8920   67.2370   28.8030 H   0  0  0  0  0  0  0  0  0  0  0  0
   14.0260   65.8950   32.6900 O   0  0  0  0  0  0  0  0  0  0  0  0
   14.2260   64.9030   32.7790 H   0  0  0  0  0  0  0  0  0  0  0  0
   14.1010   68.8580   32.2800 C   0  0  0  0  0  0  0  0  0  0  0  0
   13.8580   68.6740   33.6560 O   0  0  0  0  0  0  0  0  0  0  0  0
   14.5780   68.0240   33.9850 H   0  0  0  0  0  0  0  0  0  0  0  0
  1 12  1  6  0  0  0
  1 11  1  0  0  0  0
  2  1  1  0  0  0  0
  3  2  1  0  0  0  0
  4  2  1  0  0  0  0
  4  5  1  0  0  0  0
  5 10  1  0  0  0  0
  5 11  1  1  0  0  0
  6  5  1  1  0  0  0
  6  7  1  0  0  0  0
  7 19  1  1  0  0  0
  7  8  1  0  0  0  0
  8 23  1  6  0  0  0
  9 25  1  1  0  0  0
  9  8  1  0  0  0  0
 10  9  1  0  0  0  0
 12 18  1  0  0  0  0
 13 12  2  0  0  0  0
 13 14  1  0  0  0  0
 14 15  2  0  0  0  0
 15 17  1  0  0  0  0
 15 16  1  0  0  0  0
 18 17  2  0  0  0  0
 20 19  1  0  0  0  0
 21  6  1  0  0  0  0
 22 21  1  0  0  0  0
 23 24  1  0  0  0  0
 25 26  1  0  0  0  0
 26 27  1  0  0  0  0
M  END
>  <minimizedAffinity>
-7.35168886

$$$$

 OpenBabel12271915233D

 27 29  0  0  1  0  0  0  0  0999 V2000
   19.3620   63.6760   33.5780 C   0  0  1  0  0  0  0  0  0  0  0  0
   19.1310   64.0760   32.1870 N   0  0  0  0  0  0  0  0  0  0  0  0
   19.4660   63.3210   31.4990 H   0  0  0  0  0  0  0  0  0  0  0  0
   17.7210   64.0450   32.0330 O   0  0  0  0  0  0  0  0  0  0  0  0
   17.1830   62.9630   32.7860 C   0  0  2  0  0  0  0  0  0  0  0  0
   17.1830   61.7140   31.8410 C   0  0  1  0  0  0  0  0  0  0  0  0
   16.2900   60.5450   32.3750 C   0  0  2  0  0  0  0  0  0  0  0  0
   15.2080   61.0180   33.4070 C   0  0  1  0  0  0  0  0  0  0  0  0
   14.8000   62.4660   33.0630 C   0  0  2  0  0  0  0  0  0  0  0  0
   15.9080   63.3560   33.2810 O   0  0  0  0  0  0  0  0  0  0  0  0
   18.1470   62.8060   33.9480 C   0  0  0  0  0  0  0  0  0  0  0  0
   20.7200   63.0580   33.8390 C   0  0  0  0  0  0  0  0  0  0  0  0
   21.8470   63.9290   33.9630 C   0  0  0  0  0  0  0  0  0  0  0  0
   23.1420   63.4070   34.1390 C   0  0  0  0  0  0  0  0  0  0  0  0
   23.3500   62.0370   34.2080 C   0  0  0  0  0  0  0  0  0  0  0  0
   24.7230   61.4790   34.4300 C   0  0  0  0  0  0  0  0  0  0  0  0
   22.2480   61.1820   34.1500 C   0  0  0  0  0  0  0  0  0  0  0  0
   20.9450   61.6900   33.9890 C   0  0  0  0  0  0  0  0  0  0  0  0
   16.9400   59.4520   33.0030 O   0  0  0  0  0  0  0  0  0  0  0  0
   17.8820   59.4270   32.7490 H   0  0  0  0  0  0  0  0  0  0  0  0
   16.6550   62.0530   30.5430 O   0  0  0  0  0  0  0  0  0  0  0  0
   16.8870   63.0120   30.3990 H   0  0  0  0  0  0  0  0  0  0  0  0
   14.0730   60.1260   33.3800 O   0  0  0  0  0  0  0  0  0  0  0  0
   14.4740   59.2040   33.2360 H   0  0  0  0  0  0  0  0  0  0  0  0
   13.5440   63.0450   33.7660 C   0  0  0  0  0  0  0  0  0  0  0  0
   13.7490   64.2910   34.3910 O   0  0  0  0  0  0  0  0  0  0  0  0
   14.6610   64.6240   34.0630 H   0  0  0  0  0  0  0  0  0  0  0  0
  1 12  1  6  0  0  0
  1 11  1  0  0  0  0
  2  1  1  0  0  0  0
  3  2  1  0  0  0  0
  4  2  1  0  0  0  0
  4  5  1  0  0  0  0
  5 10  1  0  0  0  0
  5 11  1  1  0  0  0
  6  7  1  0  0  0  0
  6  5  1  1  0  0  0
  7 19  1  1  0  0  0
  7  8  1  0  0  0  0
  8 23  1  6  0  0  0
  9 10  1  0  0  0  0
  9  8  1  0  0  0  0
  9 25  1  1  0  0  0
 12 13  2  0  0  0  0
 12 18  1  0  0  0  0
 13 14  1  0  0  0  0
 14 15  2  0  0  0  0
 15 16  1  0  0  0  0
 17 15  1  0  0  0  0
 18 17  2  0  0  0  0
 20 19  1  0  0  0  0
 21  6  1  0  0  0  0
 22 21  1  0  0  0  0
 24 23  1  0  0  0  0
 25 26  1  0  0  0  0
 27 26  1  0  0  0  0
M  END
>  <minimizedAffinity>
-7.10685968

$$$$

 OpenBabel12271915233D

 27 29  0  0  1  0  0  0  0  0999 V2000
   17.7820   65.8420   31.0480 C   0  0  1  0  0  0  0  0  0  0  0  0
   16.5980   65.8830   31.9110 N   0  0  0  0  0  0  0  0  0  0  0  0
   16.8690   65.9400   32.9490 H   0  0  0  0  0  0  0  0  0  0  0  0
   16.0160   67.1530   31.6640 O   0  0  0  0  0  0  0  0  0  0  0  0
   17.0430   68.1160   31.4570 C   0  0  2  0  0  0  0  0  0  0  0  0
   17.4010   68.7000   32.8660 C   0  0  1  0  0  0  0  0  0  0  0  0
   18.2350   70.0220   32.7840 C   0  0  2  0  0  0  0  0  0  0  0  0
   18.0960   70.7540   31.4040 C   0  0  1  0  0  0  0  0  0  0  0  0
   16.6950   70.4590   30.8300 C   0  0  2  0  0  0  0  0  0  0  0  0
   16.5790   69.0640   30.5010 O   0  0  0  0  0  0  0  0  0  0  0  0
   18.1850   67.3160   30.8580 C   0  0  0  0  0  0  0  0  0  0  0  0
   18.8790   64.9150   31.5260 C   0  0  0  0  0  0  0  0  0  0  0  0
   19.9670   65.4770   32.2640 C   0  0  0  0  0  0  0  0  0  0  0  0
   21.0470   64.6750   32.6750 C   0  0  0  0  0  0  0  0  0  0  0  0
   21.0730   63.3190   32.3840 C   0  0  0  0  0  0  0  0  0  0  0  0
   22.2070   62.4550   32.8500 C   0  0  0  0  0  0  0  0  0  0  0  0
   19.9880   62.7500   31.7180 C   0  0  0  0  0  0  0  0  0  0  0  0
   18.8930   63.5360   31.3130 C   0  0  0  0  0  0  0  0  0  0  0  0
   19.6320   69.9360   33.0130 O   0  0  0  0  0  0  0  0  0  0  0  0
   19.8470   69.1140   33.4910 H   0  0  0  0  0  0  0  0  0  0  0  0
   16.2070   69.0310   33.6020 O   0  0  0  0  0  0  0  0  0  0  0  0
   15.5120   68.3880   33.2920 H   0  0  0  0  0  0  0  0  0  0  0  0
   18.3140   72.1720   31.5700 O   0  0  0  0  0  0  0  0  0  0  0  0
   19.0460   72.2390   32.2700 H   0  0  0  0  0  0  0  0  0  0  0  0
   16.2230   71.3010   29.6150 C   0  0  0  0  0  0  0  0  0  0  0  0
   16.2930   72.6950   29.8100 O   0  0  0  0  0  0  0  0  0  0  0  0
   16.8350   72.8320   30.6680 H   0  0  0  0  0  0  0  0  0  0  0  0
  1 12  1  1  0  0  0
  1  2  1  0  0  0  0
  2  3  1  0  0  0  0
  4  2  1  0  0  0  0
  5 11  1  6  0  0  0
  5  4  1  0  0  0  0
  6  5  1  6  0  0  0
  6 21  1  0  0  0  0
  7  6  1  0  0  0  0
  7 19  1  6  0  0  0
  8 23  1  1  0  0  0
  8  7  1  0  0  0  0
  9 25  1  6  0  0  0
  9  8  1  0  0  0  0
 10  9  1  0  0  0  0
 10  5  1  0  0  0  0
 11  1  1  0  0  0  0
 12 13  1  0  0  0  0
 13 14  2  0  0  0  0
 15 14  1  0  0  0  0
 15 16  1  0  0  0  0
 17 15  2  0  0  0  0
 18 12  2  0  0  0  0
 18 17  1  0  0  0  0
 19 20  1  0  0  0  0
 22 21  1  0  0  0  0
 23 24  1  0  0  0  0
 25 26  1  0  0  0  0
 26 27  1  0  0  0  0
M  END
>  <minimizedAffinity>
-7.09173822

$$$$

 OpenBabel12271915233D

 27 29  0  0  1  0  0  0  0  0999 V2000
   17.4570   58.0920   32.6060 C   0  0  1  0  0  0  0  0  0  0  0  0
   18.0120   57.4120   33.7810 N   0  0  0  0  0  0  0  0  0  0  0  0
   17.9350   58.0240   34.6620 H   0  0  0  0  0  0  0  0  0  0  0  0
   17.1040   56.3550   34.0470 O   0  0  0  0  0  0  0  0  0  0  0  0
   15.7760   56.7850   33.7690 C   0  0  2  0  0  0  0  0  0  0  0  0
   15.2220   57.4170   35.0900 C   0  0  1  0  0  0  0  0  0  0  0  0
   13.6680   57.5990   35.0740 C   0  0  2  0  0  0  0  0  0  0  0  0
   12.9490   56.6750   34.0310 C   0  0  1  0  0  0  0  0  0  0  0  0
   13.7720   55.3790   33.8740 C   0  0  2  0  0  0  0  0  0  0  0  0
   15.0440   55.6710   33.2690 O   0  0  0  0  0  0  0  0  0  0  0  0
   15.9440   57.8120   32.6640 C   0  0  0  0  0  0  0  0  0  0  0  0
   17.8540   59.5470   32.4730 C   0  0  0  0  0  0  0  0  0  0  0  0
   16.8230   60.5120   32.2530 C   0  0  0  0  0  0  0  0  0  0  0  0
   17.1390   61.8680   32.0550 C   0  0  0  0  0  0  0  0  0  0  0  0
   18.4570   62.3000   32.0810 C   0  0  0  0  0  0  0  0  0  0  0  0
   18.7950   63.7500   31.9050 C   0  0  0  0  0  0  0  0  0  0  0  0
   19.4650   61.3750   32.3560 C   0  0  0  0  0  0  0  0  0  0  0  0
   19.1640   60.0170   32.5710 C   0  0  0  0  0  0  0  0  0  0  0  0
   13.1590   58.8990   34.8230 O   0  0  0  0  0  0  0  0  0  0  0  0
   13.8450   59.5710   34.9940 H   0  0  0  0  0  0  0  0  0  0  0  0
   15.5100   56.5730   36.2230 O   0  0  0  0  0  0  0  0  0  0  0  0
   16.3610   56.1040   36.0000 H   0  0  0  0  0  0  0  0  0  0  0  0
   11.5990   56.3980   34.4600 O   0  0  0  0  0  0  0  0  0  0  0  0
   11.2830   57.2630   34.8880 H   0  0  0  0  0  0  0  0  0  0  0  0
   13.1140   54.1970   33.1140 C   0  0  0  0  0  0  0  0  0  0  0  0
   11.8510   53.8160   33.6100 O   0  0  0  0  0  0  0  0  0  0  0  0
   11.5690   54.5570   34.2590 H   0  0  0  0  0  0  0  0  0  0  0  0
  1 12  1  1  0  0  0
  1 11  1  0  0  0  0
  1  2  1  0  0  0  0
  2  4  1  0  0  0  0
  2  3  1  0  0  0  0
  5 11  1  6  0  0  0
  5  4  1  0  0  0  0
  6  5  1  6  0  0  0
  6 21  1  0  0  0  0
  7 19  1  6  0  0  0
  7  6  1  0  0  0  0
  8 23  1  1  0  0  0
  8  7  1  0  0  0  0
  9 25  1  6  0  0  0
  9  8  1  0  0  0  0
 10  5  1  0  0  0  0
 10  9  1  0  0  0  0
 12 18  1  0  0  0  0
 13 12  2  0  0  0  0
 14 15  2  0  0  0  0
 14 13  1  0  0  0  0
 15 17  1  0  0  0  0
 16 15  1  0  0  0  0
 17 18  2  0  0  0  0
 19 20  1  0  0  0  0
 22 21  1  0  0  0  0
 23 24  1  0  0  0  0
 25 26  1  0  0  0  0
 26 27  1  0  0  0  0
M  END
>  <minimizedAffinity>
-6.87821102

$$$$
