
 OpenBabel12271915223D

 30 33  0  0  1  0  0  0  0  0999 V2000
   20.5390   67.9610   31.7280 C   0  0  1  0  0  0  0  0  0  0  0  0
   20.3490   68.2060   30.2820 N   0  0  0  0  0  0  0  0  0  0  0  0
   20.0370   69.1520   30.1720 H   0  0  0  0  0  0  0  0  0  0  0  0
   19.0000   67.5240   30.0320 O   0  0  0  0  0  0  0  0  0  0  0  0
   18.2510   67.7120   31.2370 C   0  0  2  0  0  0  0  0  0  0  0  0
   16.9340   66.8410   31.2020 C   0  0  1  0  0  0  0  0  0  0  0  0
   15.6720   67.6630   31.5920 C   0  0  2  0  0  0  0  0  0  0  0  0
   15.6260   69.0940   30.9620 C   0  0  1  0  0  0  0  0  0  0  0  0
   17.0250   69.5240   30.4470 C   0  0  2  0  0  0  0  0  0  0  0  0
   17.9710   69.1160   31.4350 O   0  0  0  0  0  0  0  0  0  0  0  0
   19.2280   67.3040   32.2500 C   0  0  0  0  0  0  0  0  0  0  0  0
   21.7990   67.1550   31.9420 C   0  0  0  0  0  0  0  0  0  0  0  0
   23.0150   67.7960   31.7700 C   0  0  0  0  0  0  0  0  0  0  0  0
   24.2230   67.1110   31.8840 C   0  0  0  0  0  0  0  0  0  0  0  0
   24.1770   65.7430   32.2040 C   0  0  0  0  0  0  0  0  0  0  0  0
   25.3770   65.0370   32.3370 C   0  0  0  0  0  0  0  0  0  0  0  0
   25.3460   63.6660   32.6690 C   0  0  0  0  0  0  0  0  0  0  0  0
   24.1210   63.0200   32.8500 C   0  0  0  0  0  0  0  0  0  0  0  0
   22.9150   63.7070   32.7130 C   0  0  0  0  0  0  0  0  0  0  0  0
   22.9560   65.0840   32.3970 C   0  0  0  0  0  0  0  0  0  0  0  0
   21.7570   65.7880   32.2770 C   0  0  0  0  0  0  0  0  0  0  0  0
   15.5570   67.6990   33.0300 O   0  0  0  0  0  0  0  0  0  0  0  0
   15.7040   68.6010   33.3340 H   0  0  0  0  0  0  0  0  0  0  0  0
   16.7540   66.3210   29.8510 O   0  0  0  0  0  0  0  0  0  0  0  0
   15.8550   66.0720   29.7360 H   0  0  0  0  0  0  0  0  0  0  0  0
   14.6160   69.0320   29.9230 O   0  0  0  0  0  0  0  0  0  0  0  0
   14.9980   68.5410   29.1970 H   0  0  0  0  0  0  0  0  0  0  0  0
   17.1820   71.0310   30.2130 C   0  0  0  0  0  0  0  0  0  0  0  0
   16.3990   71.4480   29.0930 O   0  0  0  0  0  0  0  0  0  0  0  0
   16.9500   72.0120   28.5560 H   0  0  0  0  0  0  0  0  0  0  0  0
  1 12  1  6  0  0  0
  1 11  1  0  0  0  0
  2  1  1  0  0  0  0
  3  2  1  0  0  0  0
  4  2  1  0  0  0  0
  4  5  1  0  0  0  0
  5 10  1  0  0  0  0
  5 11  1  1  0  0  0
  6  5  1  6  0  0  0
  6  7  1  0  0  0  0
  7 22  1  1  0  0  0
  8 26  1  6  0  0  0
  8  7  1  0  0  0  0
  9 28  1  1  0  0  0
  9  8  1  0  0  0  0
  9 10  1  0  0  0  0
 12 21  2  0  0  0  0
 13 14  2  0  0  0  0
 13 12  1  0  0  0  0
 14 15  1  0  0  0  0
 15 16  2  0  0  0  0
 15 20  1  0  0  0  0
 16 17  1  0  0  0  0
 17 18  2  0  0  0  0
 19 18  1  0  0  0  0
 20 19  2  0  0  0  0
 21 20  1  0  0  0  0
 22 23  1  0  0  0  0
 24  6  1  0  0  0  0
 25 24  1  0  0  0  0
 27 26  1  0  0  0  0
 29 28  1  0  0  0  0
 30 29  1  0  0  0  0
M  END
>  <minimizedAffinity>
-9.51034641

$$$$

 OpenBabel12271915223D

 30 33  0  0  1  0  0  0  0  0999 V2000
   20.2580   65.5130   31.7950 C   0  0  1  0  0  0  0  0  0  0  0  0
   19.0690   65.3510   32.6580 N   0  0  0  0  0  0  0  0  0  0  0  0
   18.3130   65.0390   32.0790 H   0  0  0  0  0  0  0  0  0  0  0  0
   18.6080   66.8030   32.8170 O   0  0  0  0  0  0  0  0  0  0  0  0
   18.9250   67.4400   31.5750 C   0  0  2  0  0  0  0  0  0  0  0  0
   18.7270   69.0020   31.6970 C   0  0  1  0  0  0  0  0  0  0  0  0
   17.8960   69.5860   30.5180 C   0  0  2  0  0  0  0  0  0  0  0  0
   16.6590   68.7150   30.1210 C   0  0  1  0  0  0  0  0  0  0  0  0
   16.7780   67.2780   30.6940 C   0  0  2  0  0  0  0  0  0  0  0  0
   18.1350   66.8720   30.5070 O   0  0  0  0  0  0  0  0  0  0  0  0
   20.3140   67.0120   31.3790 C   0  0  0  0  0  0  0  0  0  0  0  0
   21.4800   64.9940   32.5170 C   0  0  0  0  0  0  0  0  0  0  0  0
   22.6420   65.7460   32.4460 C   0  0  0  0  0  0  0  0  0  0  0  0
   23.8300   65.3080   33.0260 C   0  0  0  0  0  0  0  0  0  0  0  0
   23.8160   64.0820   33.7130 C   0  0  0  0  0  0  0  0  0  0  0  0
   24.9930   63.6280   34.3150 C   0  0  0  0  0  0  0  0  0  0  0  0
   24.9900   62.4040   35.0170 C   0  0  0  0  0  0  0  0  0  0  0  0
   23.8180   61.6470   35.0940 C   0  0  0  0  0  0  0  0  0  0  0  0
   22.6380   62.0810   34.4920 C   0  0  0  0  0  0  0  0  0  0  0  0
   22.6460   63.3170   33.8060 C   0  0  0  0  0  0  0  0  0  0  0  0
   21.4650   63.7730   33.2170 C   0  0  0  0  0  0  0  0  0  0  0  0
   18.7700   69.8280   29.3970 O   0  0  0  0  0  0  0  0  0  0  0  0
   18.5440   69.2210   28.6840 H   0  0  0  0  0  0  0  0  0  0  0  0
   18.0320   69.2890   32.9460 O   0  0  0  0  0  0  0  0  0  0  0  0
   17.6440   70.1430   32.8920 H   0  0  0  0  0  0  0  0  0  0  0  0
   15.4990   69.4390   30.6040 O   0  0  0  0  0  0  0  0  0  0  0  0
   15.4830   69.3320   31.5530 H   0  0  0  0  0  0  0  0  0  0  0  0
   15.8640   66.2460   30.0230 C   0  0  0  0  0  0  0  0  0  0  0  0
   14.8940   66.8980   29.2000 O   0  0  0  0  0  0  0  0  0  0  0  0
   14.0480   66.4980   29.3860 H   0  0  0  0  0  0  0  0  0  0  0  0
  1 12  1  1  0  0  0
  1  2  1  0  0  0  0
  2  4  1  0  0  0  0
  3  2  1  0  0  0  0
  5 11  1  6  0  0  0
  5  4  1  0  0  0  0
  6  5  1  6  0  0  0
  6 24  1  0  0  0  0
  7 22  1  6  0  0  0
  7  6  1  0  0  0  0
  8  7  1  0  0  0  0
  8 26  1  1  0  0  0
  8  9  1  0  0  0  0
  9 28  1  6  0  0  0
 10  9  1  0  0  0  0
 10  5  1  0  0  0  0
 11  1  1  0  0  0  0
 12 21  1  0  0  0  0
 13 12  2  0  0  0  0
 13 14  1  0  0  0  0
 14 15  2  0  0  0  0
 15 20  1  0  0  0  0
 15 16  1  0  0  0  0
 16 17  2  0  0  0  0
 17 18  1  0  0  0  0
 19 18  2  0  0  0  0
 20 19  1  0  0  0  0
 21 20  2  0  0  0  0
 23 22  1  0  0  0  0
 25 24  1  0  0  0  0
 26 27  1  0  0  0  0
 29 30  1  0  0  0  0
 29 28  1  0  0  0  0
M  END
>  <minimizedAffinity>
-9.188344

$$$$

 OpenBabel12271915223D

 30 33  0  0  1  0  0  0  0  0999 V2000
   21.1510   61.7900   32.2760 C   0  0  1  0  0  0  0  0  0  0  0  0
   21.0060   61.1090   33.5800 N   0  0  0  0  0  0  0  0  0  0  0  0
   20.8590   60.1340   33.3990 H   0  0  0  0  0  0  0  0  0  0  0  0
   19.5610   61.4600   33.9480 O   0  0  0  0  0  0  0  0  0  0  0  0
   18.8540   61.5100   32.7050 C   0  0  2  0  0  0  0  0  0  0  0  0
   17.4080   62.1070   32.9230 C   0  0  1  0  0  0  0  0  0  0  0  0
   16.3040   61.2400   32.2530 C   0  0  2  0  0  0  0  0  0  0  0  0
   16.5030   59.7000   32.4440 C   0  0  1  0  0  0  0  0  0  0  0  0
   17.9540   59.3720   32.8820 C   0  0  2  0  0  0  0  0  0  0  0  0
   18.8170   60.1980   32.1000 O   0  0  0  0  0  0  0  0  0  0  0  0
   19.7470   62.3480   31.9000 C   0  0  0  0  0  0  0  0  0  0  0  0
   22.2560   62.8180   32.3640 C   0  0  0  0  0  0  0  0  0  0  0  0
   23.4840   62.4080   32.8560 C   0  0  0  0  0  0  0  0  0  0  0  0
   24.5350   63.3050   33.0310 C   0  0  0  0  0  0  0  0  0  0  0  0
   24.3240   64.6470   32.6700 C   0  0  0  0  0  0  0  0  0  0  0  0
   25.3680   65.5630   32.8250 C   0  0  0  0  0  0  0  0  0  0  0  0
   25.1730   66.9110   32.4550 C   0  0  0  0  0  0  0  0  0  0  0  0
   23.9380   67.3250   31.9530 C   0  0  0  0  0  0  0  0  0  0  0  0
   22.8830   66.4260   31.8010 C   0  0  0  0  0  0  0  0  0  0  0  0
   23.0930   65.0740   32.1560 C   0  0  0  0  0  0  0  0  0  0  0  0
   22.0510   64.1600   31.9890 C   0  0  0  0  0  0  0  0  0  0  0  0
   16.1960   61.6040   30.8610 O   0  0  0  0  0  0  0  0  0  0  0  0
   16.4950   60.8670   30.3180 H   0  0  0  0  0  0  0  0  0  0  0  0
   17.1430   62.1760   34.3550 O   0  0  0  0  0  0  0  0  0  0  0  0
   16.2150   62.2310   34.4930 H   0  0  0  0  0  0  0  0  0  0  0  0
   15.4970   59.2930   33.4060 O   0  0  0  0  0  0  0  0  0  0  0  0
   15.7900   59.6070   34.2600 H   0  0  0  0  0  0  0  0  0  0  0  0
   18.3650   57.9090   32.6820 C   0  0  0  0  0  0  0  0  0  0  0  0
   19.7890   57.7900   32.6470 O   0  0  0  0  0  0  0  0  0  0  0  0
   20.0090   57.2270   31.9090 H   0  0  0  0  0  0  0  0  0  0  0  0
  1 12  1  1  0  0  0
  1  2  1  0  0  0  0
  2  4  1  0  0  0  0
  3  2  1  0  0  0  0
  5 11  1  6  0  0  0
  5  4  1  0  0  0  0
  6  5  1  1  0  0  0
  6 24  1  0  0  0  0
  7 22  1  6  0  0  0
  7  8  1  0  0  0  0
  7  6  1  0  0  0  0
  8  9  1  0  0  0  0
  8 26  1  1  0  0  0
  9 28  1  6  0  0  0
 10  5  1  0  0  0  0
 10  9  1  0  0  0  0
 11  1  1  0  0  0  0
 12 13  2  0  0  0  0
 13 14  1  0  0  0  0
 15 16  1  0  0  0  0
 15 14  2  0  0  0  0
 17 16  2  0  0  0  0
 18 17  1  0  0  0  0
 19 18  2  0  0  0  0
 19 20  1  0  0  0  0
 20 15  1  0  0  0  0
 21 20  2  0  0  0  0
 21 12  1  0  0  0  0
 23 22  1  0  0  0  0
 24 25  1  0  0  0  0
 26 27  1  0  0  0  0
 29 28  1  0  0  0  0
 30 29  1  0  0  0  0
M  END
>  <minimizedAffinity>
-8.98262405

$$$$

 OpenBabel12271915223D

 30 33  0  0  1  0  0  0  0  0999 V2000
   20.3750   64.2200   32.8960 C   0  0  1  0  0  0  0  0  0  0  0  0
   20.4270   64.3660   31.4260 N   0  0  0  0  0  0  0  0  0  0  0  0
   20.2090   65.3190   31.2070 H   0  0  0  0  0  0  0  0  0  0  0  0
   19.0840   63.7560   31.0120 O   0  0  0  0  0  0  0  0  0  0  0  0
   18.1770   64.0850   32.0690 C   0  0  2  0  0  0  0  0  0  0  0  0
   16.8180   63.3020   31.8830 C   0  0  1  0  0  0  0  0  0  0  0  0
   15.5770   64.2320   32.0160 C   0  0  2  0  0  0  0  0  0  0  0  0
   15.7380   65.6100   31.2950 C   0  0  1  0  0  0  0  0  0  0  0  0
   17.2270   65.9080   30.9790 C   0  0  2  0  0  0  0  0  0  0  0  0
   17.9780   65.5150   32.1290 O   0  0  0  0  0  0  0  0  0  0  0  0
   18.9540   63.6920   33.2470 C   0  0  0  0  0  0  0  0  0  0  0  0
   21.5230   63.3510   33.3580 C   0  0  0  0  0  0  0  0  0  0  0  0
   21.2590   62.3850   34.3140 C   0  0  0  0  0  0  0  0  0  0  0  0
   22.2710   61.5860   34.8430 C   0  0  0  0  0  0  0  0  0  0  0  0
   23.5780   61.7730   34.3600 C   0  0  0  0  0  0  0  0  0  0  0  0
   24.6080   60.9750   34.8650 C   0  0  0  0  0  0  0  0  0  0  0  0
   25.9220   61.1430   34.3800 C   0  0  0  0  0  0  0  0  0  0  0  0
   26.1900   62.1130   33.4110 C   0  0  0  0  0  0  0  0  0  0  0  0
   25.1750   62.9230   32.9030 C   0  0  0  0  0  0  0  0  0  0  0  0
   23.8590   62.7350   33.3810 C   0  0  0  0  0  0  0  0  0  0  0  0
   22.8300   63.5260   32.8650 C   0  0  0  0  0  0  0  0  0  0  0  0
   15.2480   64.3850   33.4120 O   0  0  0  0  0  0  0  0  0  0  0  0
   15.4160   65.2960   33.6770 H   0  0  0  0  0  0  0  0  0  0  0  0
   16.8060   62.6930   30.5590 O   0  0  0  0  0  0  0  0  0  0  0  0
   15.9190   62.4950   30.3200 H   0  0  0  0  0  0  0  0  0  0  0  0
   14.8960   65.5360   30.1170 O   0  0  0  0  0  0  0  0  0  0  0  0
   15.3450   64.9670   29.4940 H   0  0  0  0  0  0  0  0  0  0  0  0
   17.5330   67.3790   30.6760 C   0  0  0  0  0  0  0  0  0  0  0  0
   16.3300   68.0860   30.3680 O   0  0  0  0  0  0  0  0  0  0  0  0
   16.5010   68.6130   29.5910 H   0  0  0  0  0  0  0  0  0  0  0  0
  1 11  1  0  0  0  0
  1 12  1  6  0  0  0
  2  1  1  0  0  0  0
  3  2  1  0  0  0  0
  4  2  1  0  0  0  0
  4  5  1  0  0  0  0
  5 10  1  0  0  0  0
  5 11  1  1  0  0  0
  6  7  1  0  0  0  0
  6  5  1  6  0  0  0
  7 22  1  1  0  0  0
  8 26  1  6  0  0  0
  8  7  1  0  0  0  0
  9 28  1  1  0  0  0
  9  8  1  0  0  0  0
  9 10  1  0  0  0  0
 12 13  1  0  0  0  0
 13 14  2  0  0  0  0
 15 14  1  0  0  0  0
 15 16  2  0  0  0  0
 17 16  1  0  0  0  0
 18 17  2  0  0  0  0
 19 20  2  0  0  0  0
 19 18  1  0  0  0  0
 20 15  1  0  0  0  0
 21 12  2  0  0  0  0
 21 20  1  0  0  0  0
 22 23  1  0  0  0  0
 24  6  1  0  0  0  0
 25 24  1  0  0  0  0
 27 26  1  0  0  0  0
 29 28  1  0  0  0  0
 30 29  1  0  0  0  0
M  END
>  <minimizedAffinity>
-8.81054401

$$$$

 OpenBabel12271915223D

 30 33  0  0  1  0  0  0  0  0999 V2000
   19.6970   63.6740   33.1960 C   0  0  1  0  0  0  0  0  0  0  0  0
   19.3000   63.8660   31.7860 N   0  0  0  0  0  0  0  0  0  0  0  0
   18.6090   64.5920   31.7600 H   0  0  0  0  0  0  0  0  0  0  0  0
   18.3490   62.6840   31.5730 O   0  0  0  0  0  0  0  0  0  0  0  0
   17.6950   62.4920   32.8320 C   0  0  2  0  0  0  0  0  0  0  0  0
   16.8710   61.1440   32.8180 C   0  0  1  0  0  0  0  0  0  0  0  0
   15.4180   61.3360   33.3410 C   0  0  2  0  0  0  0  0  0  0  0  0
   14.7200   62.6320   32.8140 C   0  0  1  0  0  0  0  0  0  0  0  0
   15.7570   63.6360   32.2440 C   0  0  2  0  0  0  0  0  0  0  0  0
   16.8670   63.6340   33.1420 O   0  0  0  0  0  0  0  0  0  0  0  0
   18.8360   62.5030   33.7520 C   0  0  0  0  0  0  0  0  0  0  0  0
   21.1930   63.4740   33.2770 C   0  0  0  0  0  0  0  0  0  0  0  0
   21.9970   64.2760   32.4820 C   0  0  0  0  0  0  0  0  0  0  0  0
   23.3800   64.1130   32.4470 C   0  0  0  0  0  0  0  0  0  0  0  0
   23.9480   63.1200   33.2630 C   0  0  0  0  0  0  0  0  0  0  0  0
   25.3350   62.9460   33.2550 C   0  0  0  0  0  0  0  0  0  0  0  0
   25.9200   61.9610   34.0790 C   0  0  0  0  0  0  0  0  0  0  0  0
   25.1120   61.1570   34.8860 C   0  0  0  0  0  0  0  0  0  0  0  0
   23.7260   61.3110   34.8990 C   0  0  0  0  0  0  0  0  0  0  0  0
   23.1500   62.3120   34.0850 C   0  0  0  0  0  0  0  0  0  0  0  0
   21.7660   62.4900   34.1050 C   0  0  0  0  0  0  0  0  0  0  0  0
   15.4210   61.2680   34.7820 O   0  0  0  0  0  0  0  0  0  0  0  0
   15.2000   62.1350   35.1380 H   0  0  0  0  0  0  0  0  0  0  0  0
   16.8140   60.6460   31.4490 O   0  0  0  0  0  0  0  0  0  0  0  0
   16.0980   60.0420   31.3730 H   0  0  0  0  0  0  0  0  0  0  0  0
   13.7460   62.1830   31.8380 O   0  0  0  0  0  0  0  0  0  0  0  0
   14.2360   61.9280   31.0580 H   0  0  0  0  0  0  0  0  0  0  0  0
   15.2430   65.0730   32.1060 C   0  0  0  0  0  0  0  0  0  0  0  0
   14.0520   65.1040   31.3170 O   0  0  0  0  0  0  0  0  0  0  0  0
   14.1460   65.8160   30.6890 H   0  0  0  0  0  0  0  0  0  0  0  0
  1 12  1  6  0  0  0
  1 11  1  0  0  0  0
  2  1  1  0  0  0  0
  3  2  1  0  0  0  0
  4  2  1  0  0  0  0
  4  5  1  0  0  0  0
  5 10  1  0  0  0  0
  5 11  1  1  0  0  0
  6  5  1  6  0  0  0
  6  7  1  0  0  0  0
  7 22  1  1  0  0  0
  8 26  1  6  0  0  0
  8  7  1  0  0  0  0
  9 28  1  1  0  0  0
  9  8  1  0  0  0  0
  9 10  1  0  0  0  0
 12 21  2  0  0  0  0
 13 12  1  0  0  0  0
 14 13  2  0  0  0  0
 14 15  1  0  0  0  0
 15 20  1  0  0  0  0
 16 15  2  0  0  0  0
 16 17  1  0  0  0  0
 17 18  2  0  0  0  0
 18 19  1  0  0  0  0
 20 21  1  0  0  0  0
 20 19  2  0  0  0  0
 22 23  1  0  0  0  0
 24  6  1  0  0  0  0
 25 24  1  0  0  0  0
 27 26  1  0  0  0  0
 29 28  1  0  0  0  0
 30 29  1  0  0  0  0
M  END
>  <minimizedAffinity>
-8.69764233

$$$$

 OpenBabel12271915223D

 30 33  0  0  1  0  0  0  0  0999 V2000
   19.3720   68.2890   31.4200 C   0  0  1  0  0  0  0  0  0  0  0  0
   18.0100   67.7270   31.5340 N   0  0  0  0  0  0  0  0  0  0  0  0
   17.4670   68.0870   30.7730 H   0  0  0  0  0  0  0  0  0  0  0  0
   17.4090   68.6050   32.6370 O   0  0  0  0  0  0  0  0  0  0  0  0
   18.0020   69.8960   32.4580 C   0  0  2  0  0  0  0  0  0  0  0  0
   17.6550   70.8290   33.6840 C   0  0  1  0  0  0  0  0  0  0  0  0
   17.1330   72.2240   33.2350 C   0  0  2  0  0  0  0  0  0  0  0  0
   16.1230   72.1700   32.0420 C   0  0  1  0  0  0  0  0  0  0  0  0
   16.1950   70.8050   31.3080 C   0  0  2  0  0  0  0  0  0  0  0  0
   17.5790   70.4680   31.2010 O   0  0  0  0  0  0  0  0  0  0  0  0
   19.4200   69.5460   32.3360 C   0  0  0  0  0  0  0  0  0  0  0  0
   20.3890   67.2160   31.7360 C   0  0  0  0  0  0  0  0  0  0  0  0
   19.9180   65.9600   32.0810 C   0  0  0  0  0  0  0  0  0  0  0  0
   20.7850   64.9330   32.4510 C   0  0  0  0  0  0  0  0  0  0  0  0
   22.1650   65.2010   32.4440 C   0  0  0  0  0  0  0  0  0  0  0  0
   23.0550   64.1830   32.7990 C   0  0  0  0  0  0  0  0  0  0  0  0
   24.4430   64.4350   32.7840 C   0  0  0  0  0  0  0  0  0  0  0  0
   24.9200   65.6990   32.4310 C   0  0  0  0  0  0  0  0  0  0  0  0
   24.0450   66.7280   32.0830 C   0  0  0  0  0  0  0  0  0  0  0  0
   22.6570   66.4620   32.0830 C   0  0  0  0  0  0  0  0  0  0  0  0
   21.7720   67.4780   31.7160 C   0  0  0  0  0  0  0  0  0  0  0  0
   18.2580   73.0830   32.9560 O   0  0  0  0  0  0  0  0  0  0  0  0
   18.2830   73.2710   32.0110 H   0  0  0  0  0  0  0  0  0  0  0  0
   16.6260   70.1800   34.4880 O   0  0  0  0  0  0  0  0  0  0  0  0
   16.2010   70.8280   35.0220 H   0  0  0  0  0  0  0  0  0  0  0  0
   14.8230   72.4540   32.6170 O   0  0  0  0  0  0  0  0  0  0  0  0
   14.5570   71.6720   33.0970 H   0  0  0  0  0  0  0  0  0  0  0  0
   15.5820   70.8030   29.9030 C   0  0  0  0  0  0  0  0  0  0  0  0
   16.4280   71.5010   28.9880 O   0  0  0  0  0  0  0  0  0  0  0  0
   15.8730   72.0820   28.4730 H   0  0  0  0  0  0  0  0  0  0  0  0
  1  2  1  0  0  0  0
  1 12  1  1  0  0  0
  1 11  1  0  0  0  0
  2  4  1  0  0  0  0
  3  2  1  0  0  0  0
  5 11  1  6  0  0  0
  5  4  1  0  0  0  0
  6  5  1  6  0  0  0
  6 24  1  0  0  0  0
  7 22  1  6  0  0  0
  7  6  1  0  0  0  0
  8 26  1  1  0  0  0
  8  7  1  0  0  0  0
  9 28  1  6  0  0  0
  9  8  1  0  0  0  0
 10  9  1  0  0  0  0
 10  5  1  0  0  0  0
 12 13  1  0  0  0  0
 13 14  2  0  0  0  0
 15 14  1  0  0  0  0
 15 16  2  0  0  0  0
 17 16  1  0  0  0  0
 18 17  2  0  0  0  0
 19 20  2  0  0  0  0
 19 18  1  0  0  0  0
 20 15  1  0  0  0  0
 21 12  2  0  0  0  0
 21 20  1  0  0  0  0
 23 22  1  0  0  0  0
 24 25  1  0  0  0  0
 26 27  1  0  0  0  0
 29 28  1  0  0  0  0
 30 29  1  0  0  0  0
M  END
>  <minimizedAffinity>
-8.65555859

$$$$

 OpenBabel12271915223D

 30 33  0  0  1  0  0  0  0  0999 V2000
   19.2320   62.9460   31.9230 C   0  0  1  0  0  0  0  0  0  0  0  0
   19.5480   62.1980   33.1580 N   0  0  0  0  0  0  0  0  0  0  0  0
   19.6930   61.2390   32.9050 H   0  0  0  0  0  0  0  0  0  0  0  0
   18.1570   62.0300   33.7770 O   0  0  0  0  0  0  0  0  0  0  0  0
   17.2620   61.8970   32.6680 C   0  0  2  0  0  0  0  0  0  0  0  0
   15.7650   61.9670   33.1650 C   0  0  1  0  0  0  0  0  0  0  0  0
   14.8960   60.8120   32.5880 C   0  0  2  0  0  0  0  0  0  0  0  0
   15.6100   59.4200   32.5900 C   0  0  1  0  0  0  0  0  0  0  0  0
   17.1430   59.5760   32.7660 C   0  0  2  0  0  0  0  0  0  0  0  0
   17.5410   60.6760   31.9470 O   0  0  0  0  0  0  0  0  0  0  0  0
   17.6810   63.0200   31.8240 C   0  0  0  0  0  0  0  0  0  0  0  0
   19.9450   64.2780   31.9430 C   0  0  0  0  0  0  0  0  0  0  0  0
   19.1780   65.4250   31.8170 C   0  0  0  0  0  0  0  0  0  0  0  0
   19.7610   66.6890   31.7590 C   0  0  0  0  0  0  0  0  0  0  0  0
   21.1610   66.7750   31.8560 C   0  0  0  0  0  0  0  0  0  0  0  0
   21.7680   68.0330   31.8140 C   0  0  0  0  0  0  0  0  0  0  0  0
   23.1710   68.1350   31.9210 C   0  0  0  0  0  0  0  0  0  0  0  0
   23.9460   66.9800   32.0540 C   0  0  0  0  0  0  0  0  0  0  0  0
   23.3570   65.7160   32.0890 C   0  0  0  0  0  0  0  0  0  0  0  0
   21.9500   65.6260   31.9990 C   0  0  0  0  0  0  0  0  0  0  0  0
   21.3460   64.3680   32.0540 C   0  0  0  0  0  0  0  0  0  0  0  0
   14.4320   61.1810   31.2730 O   0  0  0  0  0  0  0  0  0  0  0  0
   14.8500   60.6100   30.6200 H   0  0  0  0  0  0  0  0  0  0  0  0
   15.7510   61.8800   34.6200 O   0  0  0  0  0  0  0  0  0  0  0  0
   14.8940   61.6160   34.9030 H   0  0  0  0  0  0  0  0  0  0  0  0
   14.9760   58.6580   33.6490 O   0  0  0  0  0  0  0  0  0  0  0  0
   15.3000   59.0140   34.4750 H   0  0  0  0  0  0  0  0  0  0  0  0
   17.9600   58.3440   32.3580 C   0  0  0  0  0  0  0  0  0  0  0  0
   17.4690   57.1770   33.0220 O   0  0  0  0  0  0  0  0  0  0  0  0
   18.2250   56.7040   33.3610 H   0  0  0  0  0  0  0  0  0  0  0  0
  1 12  1  1  0  0  0
  1  2  1  0  0  0  0
  2  4  1  0  0  0  0
  3  2  1  0  0  0  0
  5 11  1  6  0  0  0
  5  4  1  0  0  0  0
  6  5  1  6  0  0  0
  6 24  1  0  0  0  0
  7 22  1  6  0  0  0
  7  8  1  0  0  0  0
  7  6  1  0  0  0  0
  8  9  1  0  0  0  0
  8 26  1  1  0  0  0
  9 28  1  6  0  0  0
 10  5  1  0  0  0  0
 10  9  1  0  0  0  0
 11  1  1  0  0  0  0
 12 21  2  0  0  0  0
 13 12  1  0  0  0  0
 14 13  2  0  0  0  0
 14 15  1  0  0  0  0
 15 20  1  0  0  0  0
 16 15  2  0  0  0  0
 16 17  1  0  0  0  0
 17 18  2  0  0  0  0
 18 19  1  0  0  0  0
 20 21  1  0  0  0  0
 20 19  2  0  0  0  0
 23 22  1  0  0  0  0
 24 25  1  0  0  0  0
 26 27  1  0  0  0  0
 28 29  1  0  0  0  0
 29 30  1  0  0  0  0
M  END
>  <minimizedAffinity>
-8.52690887

$$$$

 OpenBabel12271915223D

 30 33  0  0  1  0  0  0  0  0999 V2000
   19.3900   61.9960   33.0820 C   0  0  1  0  0  0  0  0  0  0  0  0
   18.6810   62.1120   31.7910 N   0  0  0  0  0  0  0  0  0  0  0  0
   17.7300   62.3600   31.9870 H   0  0  0  0  0  0  0  0  0  0  0  0
   18.4340   60.6400   31.4450 O   0  0  0  0  0  0  0  0  0  0  0  0
   18.2280   59.9850   32.7010 C   0  0  2  0  0  0  0  0  0  0  0  0
   18.2100   58.4190   32.5010 C   0  0  1  0  0  0  0  0  0  0  0  0
   16.9940   57.7480   33.2040 C   0  0  2  0  0  0  0  0  0  0  0  0
   15.6500   58.5290   33.0290 C   0  0  1  0  0  0  0  0  0  0  0  0
   15.9060   59.9880   32.5680 C   0  0  2  0  0  0  0  0  0  0  0  0
   17.0180   60.4700   33.3230 O   0  0  0  0  0  0  0  0  0  0  0  0
   19.3640   60.4900   33.4780 C   0  0  0  0  0  0  0  0  0  0  0  0
   20.7650   62.6110   32.9610 C   0  0  0  0  0  0  0  0  0  0  0  0
   20.8710   63.8400   32.3310 C   0  0  0  0  0  0  0  0  0  0  0  0
   22.1080   64.4460   32.1190 C   0  0  0  0  0  0  0  0  0  0  0  0
   23.2560   63.7830   32.5850 C   0  0  0  0  0  0  0  0  0  0  0  0
   24.5070   64.3770   32.3960 C   0  0  0  0  0  0  0  0  0  0  0  0
   25.6660   63.7280   32.8690 C   0  0  0  0  0  0  0  0  0  0  0  0
   25.5610   62.4910   33.5100 C   0  0  0  0  0  0  0  0  0  0  0  0
   24.3220   61.8800   33.6990 C   0  0  0  0  0  0  0  0  0  0  0  0
   23.1640   62.5460   33.2380 C   0  0  0  0  0  0  0  0  0  0  0  0
   21.9160   61.9550   33.4400 C   0  0  0  0  0  0  0  0  0  0  0  0
   17.3150   57.5240   34.5930 O   0  0  0  0  0  0  0  0  0  0  0  0
   16.7620   58.0930   35.1390 H   0  0  0  0  0  0  0  0  0  0  0  0
   18.1430   58.1300   31.0740 O   0  0  0  0  0  0  0  0  0  0  0  0
   17.8290   57.2520   30.9530 H   0  0  0  0  0  0  0  0  0  0  0  0
   14.8650   57.7510   32.0920 O   0  0  0  0  0  0  0  0  0  0  0  0
   15.2520   57.8880   31.2290 H   0  0  0  0  0  0  0  0  0  0  0  0
   14.7230   60.9400   32.7800 C   0  0  0  0  0  0  0  0  0  0  0  0
   13.5800   60.4860   32.0530 O   0  0  0  0  0  0  0  0  0  0  0  0
   13.2100   61.2420   31.6040 H   0  0  0  0  0  0  0  0  0  0  0  0
  1 12  1  6  0  0  0
  1 11  1  0  0  0  0
  2  3  1  0  0  0  0
  2  1  1  0  0  0  0
  4  2  1  0  0  0  0
  4  5  1  0  0  0  0
  5 10  1  0  0  0  0
  5 11  1  1  0  0  0
  6  5  1  6  0  0  0
  6  7  1  0  0  0  0
  7 22  1  1  0  0  0
  8 26  1  6  0  0  0
  8  7  1  0  0  0  0
  9 28  1  1  0  0  0
  9  8  1  0  0  0  0
  9 10  1  0  0  0  0
 12 21  2  0  0  0  0
 13 12  1  0  0  0  0
 14 13  2  0  0  0  0
 14 15  1  0  0  0  0
 15 20  1  0  0  0  0
 16 15  2  0  0  0  0
 16 17  1  0  0  0  0
 17 18  2  0  0  0  0
 18 19  1  0  0  0  0
 20 21  1  0  0  0  0
 20 19  2  0  0  0  0
 22 23  1  0  0  0  0
 24  6  1  0  0  0  0
 25 24  1  0  0  0  0
 27 26  1  0  0  0  0
 29 28  1  0  0  0  0
 30 29  1  0  0  0  0
M  END
>  <minimizedAffinity>
-8.33345509

$$$$

 OpenBabel12271915223D

 30 33  0  0  1  0  0  0  0  0999 V2000
   20.8290   66.6050   32.5670 C   0  0  1  0  0  0  0  0  0  0  0  0
   21.5350   67.8010   32.0590 N   0  0  0  0  0  0  0  0  0  0  0  0
   21.1980   68.5940   32.5720 H   0  0  0  0  0  0  0  0  0  0  0  0
   20.7750   68.0720   30.7570 O   0  0  0  0  0  0  0  0  0  0  0  0
   19.4230   67.6820   31.0180 C   0  0  2  0  0  0  0  0  0  0  0  0
   18.5880   67.6780   29.6770 C   0  0  1  0  0  0  0  0  0  0  0  0
   17.2360   68.4340   29.8210 C   0  0  2  0  0  0  0  0  0  0  0  0
   17.3410   69.7740   30.6200 C   0  0  1  0  0  0  0  0  0  0  0  0
   18.6550   69.8360   31.4420 C   0  0  2  0  0  0  0  0  0  0  0  0
   18.8410   68.5440   32.0200 O   0  0  0  0  0  0  0  0  0  0  0  0
   19.6170   66.3610   31.6220 C   0  0  0  0  0  0  0  0  0  0  0  0
   21.8030   65.4550   32.6840 C   0  0  0  0  0  0  0  0  0  0  0  0
   21.3310   64.2570   33.1950 C   0  0  0  0  0  0  0  0  0  0  0  0
   22.1770   63.1680   33.3970 C   0  0  0  0  0  0  0  0  0  0  0  0
   23.5300   63.3100   33.0450 C   0  0  0  0  0  0  0  0  0  0  0  0
   24.3950   62.2270   33.2260 C   0  0  0  0  0  0  0  0  0  0  0  0
   25.7530   62.3510   32.8650 C   0  0  0  0  0  0  0  0  0  0  0  0
   26.2290   63.5560   32.3440 C   0  0  0  0  0  0  0  0  0  0  0  0
   25.3820   64.6490   32.1640 C   0  0  0  0  0  0  0  0  0  0  0  0
   24.0190   64.5100   32.5120 C   0  0  0  0  0  0  0  0  0  0  0  0
   23.1560   65.5890   32.3180 C   0  0  0  0  0  0  0  0  0  0  0  0
   16.2530   67.5420   30.3840 O   0  0  0  0  0  0  0  0  0  0  0  0
   16.0200   67.8470   31.2670 H   0  0  0  0  0  0  0  0  0  0  0  0
   19.3770   68.3240   28.6340 O   0  0  0  0  0  0  0  0  0  0  0  0
   18.8030   68.6000   27.9430 H   0  0  0  0  0  0  0  0  0  0  0  0
   17.2200   70.8290   29.6330 O   0  0  0  0  0  0  0  0  0  0  0  0
   18.0470   70.8540   29.1550 H   0  0  0  0  0  0  0  0  0  0  0  0
   18.6560   70.8790   32.5650 C   0  0  0  0  0  0  0  0  0  0  0  0
   17.5180   70.7030   33.4120 O   0  0  0  0  0  0  0  0  0  0  0  0
   17.1370   71.5650   33.5580 H   0  0  0  0  0  0  0  0  0  0  0  0
  1 12  1  6  0  0  0
  2  1  1  0  0  0  0
  2  3  1  0  0  0  0
  4  5  1  0  0  0  0
  4  2  1  0  0  0  0
  5 11  1  1  0  0  0
  5 10  1  0  0  0  0
  6  7  1  0  0  0  0
  6  5  1  1  0  0  0
  7 22  1  1  0  0  0
  7  8  1  0  0  0  0
  8 26  1  6  0  0  0
  8  9  1  0  0  0  0
  9 10  1  0  0  0  0
  9 28  1  1  0  0  0
 11  1  1  0  0  0  0
 12 13  2  0  0  0  0
 13 14  1  0  0  0  0
 15 16  1  0  0  0  0
 15 14  2  0  0  0  0
 17 16  2  0  0  0  0
 18 17  1  0  0  0  0
 19 18  2  0  0  0  0
 19 20  1  0  0  0  0
 20 15  1  0  0  0  0
 21 20  2  0  0  0  0
 21 12  1  0  0  0  0
 22 23  1  0  0  0  0
 24  6  1  0  0  0  0
 25 24  1  0  0  0  0
 27 26  1  0  0  0  0
 28 29  1  0  0  0  0
 29 30  1  0  0  0  0
M  END
>  <minimizedAffinity>
-8.25338078

$$$$
