
 OpenBabel12271915203D

 25 29  0  0  1  0  0  0  0  0999 V2000
   19.6330   59.9550   33.1240 C   0  0  1  0  0  0  0  0  0  0  0  0
   19.3850   61.4370   33.5140 C   0  0  1  0  0  0  0  0  0  0  0  0
   20.6510   62.2270   33.6790 C   0  0  0  0  0  0  0  0  0  0  0  0
   21.6880   61.5370   34.3380 C   0  0  0  0  0  0  0  0  0  0  0  0
   22.8980   62.1760   34.5400 C   0  0  0  0  0  0  0  0  0  0  0  0
   24.0180   61.6490   35.1200 O   0  0  0  0  0  0  0  0  0  0  0  0
   24.8800   62.8050   35.2700 C   0  0  0  0  0  0  0  0  0  0  0  0
   24.3840   63.8730   34.4320 O   0  0  0  0  0  0  0  0  0  0  0  0
   23.1160   63.4490   34.1510 C   0  0  0  0  0  0  0  0  0  0  0  0
   22.1140   64.1650   33.5300 C   0  0  0  0  0  0  0  0  0  0  0  0
   20.8700   63.5570   33.3030 C   0  0  0  0  0  0  0  0  0  0  0  0
   19.8800   64.4430   32.6180 C   0  0  0  0  0  0  0  0  0  0  0  0
   19.4660   63.8040   31.3210 C   0  0  0  0  0  0  0  0  0  0  0  0
   18.4890   62.7000   31.4050 N   0  0  2  0  0  0  0  0  0  0  0  0
   18.7760   62.0290   30.6680 H   0  0  0  0  0  0  0  0  0  0  0  0
   17.1160   63.1640   31.0280 C   0  0  0  0  0  0  0  0  0  0  0  0
   16.4300   63.4800   32.3440 C   0  0  0  0  0  0  0  0  0  0  0  0
   17.1600   62.6800   33.3980 C   0  0  0  0  0  0  0  0  0  0  0  0
   18.2370   61.9180   32.6340 C   0  0  2  0  0  0  0  0  0  0  0  0
   17.6070   60.6200   32.2080 C   0  0  0  0  0  0  0  0  0  0  0  0
   18.3710   59.5710   32.4720 C   0  0  2  0  0  0  0  0  0  0  0  0
   20.7260   59.7840   32.2500 O   0  0  0  0  0  0  0  0  0  0  0  0
   20.5940   60.2820   31.4270 H   0  0  0  0  0  0  0  0  0  0  0  0
   17.9670   58.2890   32.1910 O   0  0  0  0  0  0  0  0  0  0  0  0
   17.8540   57.4000   33.3060 C   0  0  0  0  0  0  0  0  0  0  0  0
  1 22  1  6  0  0  0
  1  2  1  0  0  0  0
  2 19  1  6  0  0  0
  2  3  1  0  0  0  0
  3  4  2  0  0  0  0
  4  5  1  0  0  0  0
  5  6  1  0  0  0  0
  6  7  1  0  0  0  0
  8  7  1  0  0  0  0
  9  8  1  0  0  0  0
  9  5  2  0  0  0  0
 10  9  1  0  0  0  0
 11 10  2  0  0  0  0
 11  3  1  0  0  0  0
 12 11  1  0  0  0  0
 13 14  1  0  0  0  0
 13 12  1  0  0  0  0
 14 19  1  1  0  0  0
 15 14  1  0  0  0  0
 16 14  1  0  0  0  0
 16 17  1  0  0  0  0
 17 18  1  0  0  0  0
 19 20  1  6  0  0  0
 19 18  1  0  0  0  0
 20 21  1  0  0  0  0
 21 24  1  1  0  0  0
 21  1  1  0  0  0  0
 23 22  1  0  0  0  0
 24 25  1  0  0  0  0
M  END
>  <minimizedAffinity>
-8.77045727

$$$$

 OpenBabel12271915203D

 25 29  0  0  1  0  0  0  0  0999 V2000
   17.2280   63.6010   31.6890 C   0  0  1  0  0  0  0  0  0  0  0  0
   18.1660   62.8500   32.6720 C   0  0  1  0  0  0  0  0  0  0  0  0
   17.9690   61.3620   32.6600 C   0  0  0  0  0  0  0  0  0  0  0  0
   16.6230   60.9510   32.5900 C   0  0  0  0  0  0  0  0  0  0  0  0
   16.3330   59.5990   32.5730 C   0  0  0  0  0  0  0  0  0  0  0  0
   15.0970   59.0260   32.4670 O   0  0  0  0  0  0  0  0  0  0  0  0
   15.3660   57.6250   32.7250 C   0  0  0  0  0  0  0  0  0  0  0  0
   16.7850   57.3870   32.5920 O   0  0  0  0  0  0  0  0  0  0  0  0
   17.2930   58.6540   32.6450 C   0  0  0  0  0  0  0  0  0  0  0  0
   18.6190   59.0190   32.7450 C   0  0  0  0  0  0  0  0  0  0  0  0
   18.9610   60.3790   32.7660 C   0  0  0  0  0  0  0  0  0  0  0  0
   20.4300   60.6320   32.8710 C   0  0  0  0  0  0  0  0  0  0  0  0
   20.8790   61.4180   31.6700 C   0  0  0  0  0  0  0  0  0  0  0  0
   20.5840   62.8650   31.6720 N   0  0  2  0  0  0  0  0  0  0  0  0
   20.3600   63.0960   30.6850 H   0  0  0  0  0  0  0  0  0  0  0  0
   21.8020   63.6640   32.0170 C   0  0  0  0  0  0  0  0  0  0  0  0
   21.6880   63.9370   33.5050 C   0  0  0  0  0  0  0  0  0  0  0  0
   20.2190   63.8140   33.8400 C   0  0  0  0  0  0  0  0  0  0  0  0
   19.5410   63.4890   32.5140 C   0  0  2  0  0  0  0  0  0  0  0  0
   19.2000   64.8110   31.8840 C   0  0  0  0  0  0  0  0  0  0  0  0
   17.9520   64.8570   31.4390 C   0  0  2  0  0  0  0  0  0  0  0  0
   17.0040   62.8990   30.4880 O   0  0  0  0  0  0  0  0  0  0  0  0
   17.8380   62.7320   30.0210 H   0  0  0  0  0  0  0  0  0  0  0  0
   17.4310   65.9860   30.8570 O   0  0  0  0  0  0  0  0  0  0  0  0
   18.3350   67.0770   30.6650 C   0  0  0  0  0  0  0  0  0  0  0  0
  1 22  1  6  0  0  0
  1  2  1  0  0  0  0
  2 19  1  6  0  0  0
  3  2  1  0  0  0  0
  3 11  2  0  0  0  0
  4  3  1  0  0  0  0
  5  4  2  0  0  0  0
  5  9  1  0  0  0  0
  6  5  1  0  0  0  0
  6  7  1  0  0  0  0
  8  9  1  0  0  0  0
  8  7  1  0  0  0  0
  9 10  2  0  0  0  0
 10 11  1  0  0  0  0
 11 12  1  0  0  0  0
 13 14  1  0  0  0  0
 13 12  1  0  0  0  0
 14 16  1  0  0  0  0
 14 19  1  1  0  0  0
 15 14  1  0  0  0  0
 16 17  1  0  0  0  0
 17 18  1  0  0  0  0
 19 20  1  6  0  0  0
 19 18  1  0  0  0  0
 21 24  1  1  0  0  0
 21  1  1  0  0  0  0
 21 20  1  0  0  0  0
 23 22  1  0  0  0  0
 25 24  1  0  0  0  0
M  END
>  <minimizedAffinity>
-8.35564518

$$$$

 OpenBabel12271915203D

 25 29  0  0  1  0  0  0  0  0999 V2000
   19.0210   65.5590   31.5470 C   0  0  1  0  0  0  0  0  0  0  0  0
   19.5180   64.1110   31.8050 C   0  0  1  0  0  0  0  0  0  0  0  0
   20.8030   64.0540   32.5790 C   0  0  0  0  0  0  0  0  0  0  0  0
   21.7560   65.0210   32.2010 C   0  0  0  0  0  0  0  0  0  0  0  0
   22.9750   65.0550   32.8540 C   0  0  0  0  0  0  0  0  0  0  0  0
   23.9930   65.9430   32.6470 O   0  0  0  0  0  0  0  0  0  0  0  0
   25.0790   65.3780   33.4240 C   0  0  0  0  0  0  0  0  0  0  0  0
   24.5400   64.4050   34.3470 O   0  0  0  0  0  0  0  0  0  0  0  0
   23.2970   64.1780   33.8270 C   0  0  0  0  0  0  0  0  0  0  0  0
   22.4010   63.1990   34.2020 C   0  0  0  0  0  0  0  0  0  0  0  0
   21.1520   63.1270   33.5680 C   0  0  0  0  0  0  0  0  0  0  0  0
   20.2780   62.0250   34.0750 C   0  0  0  0  0  0  0  0  0  0  0  0
   19.0080   62.6180   34.6210 C   0  0  0  0  0  0  0  0  0  0  0  0
   17.9910   63.0330   33.6350 N   0  0  2  0  0  0  0  0  0  0  0  0
   17.5650   63.8920   34.0320 H   0  0  0  0  0  0  0  0  0  0  0  0
   16.8840   62.0280   33.5460 C   0  0  0  0  0  0  0  0  0  0  0  0
   17.2440   61.1460   32.3650 C   0  0  0  0  0  0  0  0  0  0  0  0
   18.1680   61.9680   31.4960 C   0  0  0  0  0  0  0  0  0  0  0  0
   18.2880   63.3090   32.2130 C   0  0  2  0  0  0  0  0  0  0  0  0
   17.1700   64.1650   31.6880 C   0  0  0  0  0  0  0  0  0  0  0  0
   17.5760   65.3770   31.3370 C   0  0  2  0  0  0  0  0  0  0  0  0
   19.2700   66.4330   32.6240 O   0  0  0  0  0  0  0  0  0  0  0  0
   18.8370   66.1190   33.4330 H   0  0  0  0  0  0  0  0  0  0  0  0
   16.7160   66.3050   30.8030 O   0  0  0  0  0  0  0  0  0  0  0  0
   17.2950   67.2790   29.9310 C   0  0  0  0  0  0  0  0  0  0  0  0
  1  2  1  0  0  0  0
  1 22  1  1  0  0  0
  2 19  1  1  0  0  0
  2  3  1  0  0  0  0
  3 11  1  0  0  0  0
  4  3  2  0  0  0  0
  4  5  1  0  0  0  0
  5  9  2  0  0  0  0
  6  5  1  0  0  0  0
  6  7  1  0  0  0  0
  7  8  1  0  0  0  0
  9 10  1  0  0  0  0
  9  8  1  0  0  0  0
 11 12  1  0  0  0  0
 11 10  2  0  0  0  0
 12 13  1  0  0  0  0
 14 19  1  6  0  0  0
 14 15  1  0  0  0  0
 14 13  1  0  0  0  0
 16 14  1  0  0  0  0
 17 16  1  0  0  0  0
 18 17  1  0  0  0  0
 19 18  1  6  0  0  0
 20 19  1  0  0  0  0
 21 24  1  6  0  0  0
 21  1  1  0  0  0  0
 21 20  1  0  0  0  0
 22 23  1  0  0  0  0
 25 24  1  0  0  0  0
M  END
>  <minimizedAffinity>
-8.31244755

$$$$

 OpenBabel12271915203D

 25 29  0  0  1  0  0  0  0  0999 V2000
   25.0180   64.6070   31.9060 C   0  0  1  0  0  0  0  0  0  0  0  0
   24.1160   64.4820   33.1630 C   0  0  1  0  0  0  0  0  0  0  0  0
   22.7010   64.9250   32.9250 C   0  0  0  0  0  0  0  0  0  0  0  0
   22.5780   66.0890   32.1390 C   0  0  0  0  0  0  0  0  0  0  0  0
   21.3170   66.5810   31.8600 C   0  0  0  0  0  0  0  0  0  0  0  0
   21.0110   67.6660   31.0860 O   0  0  0  0  0  0  0  0  0  0  0  0
   19.5930   67.8450   31.3250 C   0  0  0  0  0  0  0  0  0  0  0  0
   19.0600   66.6410   31.9200 O   0  0  0  0  0  0  0  0  0  0  0  0
   20.1950   66.0020   32.3340 C   0  0  0  0  0  0  0  0  0  0  0  0
   20.2780   64.8800   33.1310 C   0  0  0  0  0  0  0  0  0  0  0  0
   21.5370   64.3450   33.4410 C   0  0  0  0  0  0  0  0  0  0  0  0
   21.4810   63.1280   34.3070 C   0  0  0  0  0  0  0  0  0  0  0  0
   22.1220   61.9780   33.5790 C   0  0  0  0  0  0  0  0  0  0  0  0
   23.5980   61.9470   33.5530 N   0  0  2  0  0  0  0  0  0  0  0  0
   23.8430   61.5760   32.6150 H   0  0  0  0  0  0  0  0  0  0  0  0
   24.1350   60.9590   34.5410 C   0  0  0  0  0  0  0  0  0  0  0  0
   24.4670   61.7750   35.7760 C   0  0  0  0  0  0  0  0  0  0  0  0
   24.6630   63.1950   35.2970 C   0  0  0  0  0  0  0  0  0  0  0  0
   24.4490   63.1320   33.7890 C   0  0  2  0  0  0  0  0  0  0  0  0
   25.7950   62.8350   33.1880 C   0  0  0  0  0  0  0  0  0  0  0  0
   26.0880   63.6320   32.1710 C   0  0  2  0  0  0  0  0  0  0  0  0
   24.3440   64.3040   30.7050 O   0  0  0  0  0  0  0  0  0  0  0  0
   23.9950   63.3990   30.7220 H   0  0  0  0  0  0  0  0  0  0  0  0
   27.2840   63.5470   31.5030 O   0  0  0  0  0  0  0  0  0  0  0  0
   27.6500   62.2520   31.0190 C   0  0  0  0  0  0  0  0  0  0  0  0
  1 22  1  6  0  0  0
  1 21  1  0  0  0  0
  1  2  1  0  0  0  0
  2 19  1  6  0  0  0
  3  2  1  0  0  0  0
  3 11  2  0  0  0  0
  4  3  1  0  0  0  0
  5  4  2  0  0  0  0
  5  9  1  0  0  0  0
  6  7  1  0  0  0  0
  6  5  1  0  0  0  0
  7  8  1  0  0  0  0
  8  9  1  0  0  0  0
  9 10  2  0  0  0  0
 10 11  1  0  0  0  0
 11 12  1  0  0  0  0
 13 12  1  0  0  0  0
 14 13  1  0  0  0  0
 14 19  1  1  0  0  0
 14 16  1  0  0  0  0
 15 14  1  0  0  0  0
 16 17  1  0  0  0  0
 18 17  1  0  0  0  0
 19 20  1  6  0  0  0
 19 18  1  0  0  0  0
 21 24  1  1  0  0  0
 21 20  1  0  0  0  0
 22 23  1  0  0  0  0
 25 24  1  0  0  0  0
M  END
>  <minimizedAffinity>
-8.10648346

$$$$

 OpenBabel12271915203D

 25 29  0  0  1  0  0  0  0  0999 V2000
   23.3790   61.4660   33.9000 C   0  0  1  0  0  0  0  0  0  0  0  0
   22.7960   62.2360   32.6850 C   0  0  1  0  0  0  0  0  0  0  0  0
   21.3150   62.0510   32.5210 C   0  0  0  0  0  0  0  0  0  0  0  0
   20.8620   60.7360   32.7450 C   0  0  0  0  0  0  0  0  0  0  0  0
   19.5140   60.4580   32.6200 C   0  0  0  0  0  0  0  0  0  0  0  0
   18.8980   59.2570   32.8390 O   0  0  0  0  0  0  0  0  0  0  0  0
   17.5540   59.4880   32.3480 C   0  0  0  0  0  0  0  0  0  0  0  0
   17.3380   60.9110   32.2190 O   0  0  0  0  0  0  0  0  0  0  0  0
   18.6130   61.3980   32.2640 C   0  0  0  0  0  0  0  0  0  0  0  0
   19.0250   62.6890   32.0060 C   0  0  0  0  0  0  0  0  0  0  0  0
   20.3840   63.0170   32.1220 C   0  0  0  0  0  0  0  0  0  0  0  0
   20.6880   64.4490   31.8210 C   0  0  0  0  0  0  0  0  0  0  0  0
   21.3130   65.0820   33.0330 C   0  0  0  0  0  0  0  0  0  0  0  0
   22.7380   64.7840   33.2800 N   0  0  2  0  0  0  0  0  0  0  0  0
   22.8250   64.7210   34.3130 H   0  0  0  0  0  0  0  0  0  0  0  0
   23.6100   65.9270   32.8610 C   0  0  0  0  0  0  0  0  0  0  0  0
   24.0810   65.5730   31.4630 C   0  0  0  0  0  0  0  0  0  0  0  0
   23.9660   64.0700   31.3520 C   0  0  0  0  0  0  0  0  0  0  0  0
   23.4430   63.6170   32.7100 C   0  0  2  0  0  0  0  0  0  0  0  0
   24.6570   63.3750   33.5650 C   0  0  0  0  0  0  0  0  0  0  0  0
   24.6080   62.2160   34.2050 C   0  0  2  0  0  0  0  0  0  0  0  0
   22.5120   61.4410   35.0120 O   0  0  0  0  0  0  0  0  0  0  0  0
   22.3060   62.3410   35.3110 H   0  0  0  0  0  0  0  0  0  0  0  0
   25.6320   61.7890   35.0140 O   0  0  0  0  0  0  0  0  0  0  0  0
   26.3260   60.6120   34.5930 C   0  0  0  0  0  0  0  0  0  0  0  0
  1 21  1  0  0  0  0
  1 22  1  1  0  0  0
  2 19  1  1  0  0  0
  2  1  1  0  0  0  0
  3  2  1  0  0  0  0
  3  4  2  0  0  0  0
  5  4  1  0  0  0  0
  5  6  1  0  0  0  0
  7  6  1  0  0  0  0
  8  9  1  0  0  0  0
  8  7  1  0  0  0  0
  9  5  2  0  0  0  0
 10 11  2  0  0  0  0
 10  9  1  0  0  0  0
 11  3  1  0  0  0  0
 12 11  1  0  0  0  0
 12 13  1  0  0  0  0
 13 14  1  0  0  0  0
 14 19  1  6  0  0  0
 14 15  1  0  0  0  0
 16 14  1  0  0  0  0
 17 16  1  0  0  0  0
 18 17  1  0  0  0  0
 19 18  1  6  0  0  0
 19 20  1  0  0  0  0
 20 21  1  0  0  0  0
 21 24  1  6  0  0  0
 22 23  1  0  0  0  0
 25 24  1  0  0  0  0
M  END
>  <minimizedAffinity>
-7.95523167

$$$$

 OpenBabel12271915203D

 25 29  0  0  1  0  0  0  0  0999 V2000
   18.0430   61.2710   32.0180 C   0  0  1  0  0  0  0  0  0  0  0  0
   19.2410   62.2220   31.7490 C   0  0  1  0  0  0  0  0  0  0  0  0
   18.8440   63.6680   31.6690 C   0  0  0  0  0  0  0  0  0  0  0  0
   17.6440   63.9060   30.9700 C   0  0  0  0  0  0  0  0  0  0  0  0
   17.1890   65.2060   30.8400 C   0  0  0  0  0  0  0  0  0  0  0  0
   16.0340   65.6140   30.2340 O   0  0  0  0  0  0  0  0  0  0  0  0
   16.1810   67.0560   30.1940 C   0  0  0  0  0  0  0  0  0  0  0  0
   17.2280   67.4470   31.1110 O   0  0  0  0  0  0  0  0  0  0  0  0
   17.8670   66.2610   31.3370 C   0  0  0  0  0  0  0  0  0  0  0  0
   19.0600   66.0680   32.0000 C   0  0  0  0  0  0  0  0  0  0  0  0
   19.5600   64.7670   32.1570 C   0  0  0  0  0  0  0  0  0  0  0  0
   20.8560   64.7020   32.8990 C   0  0  0  0  0  0  0  0  0  0  0  0
   20.6740   63.8610   34.1320 C   0  0  0  0  0  0  0  0  0  0  0  0
   20.6570   62.3970   33.9420 N   0  0  2  0  0  0  0  0  0  0  0  0
   19.9600   62.0440   34.6260 H   0  0  0  0  0  0  0  0  0  0  0  0
   21.9660   61.7860   34.3370 C   0  0  0  0  0  0  0  0  0  0  0  0
   22.7450   61.6500   33.0420 C   0  0  0  0  0  0  0  0  0  0  0  0
   21.7160   61.6290   31.9350 C   0  0  0  0  0  0  0  0  0  0  0  0
   20.3730   61.7390   32.6490 C   0  0  2  0  0  0  0  0  0  0  0  0
   19.9460   60.3300   32.9560 C   0  0  0  0  0  0  0  0  0  0  0  0
   18.6880   60.0920   32.6170 C   0  0  2  0  0  0  0  0  0  0  0  0
   17.0820   61.8200   32.8910 O   0  0  0  0  0  0  0  0  0  0  0  0
   17.4770   62.0380   33.7500 H   0  0  0  0  0  0  0  0  0  0  0  0
   18.1120   58.8570   32.7840 O   0  0  0  0  0  0  0  0  0  0  0  0
   19.0070   57.7640   33.0100 C   0  0  0  0  0  0  0  0  0  0  0  0
  1 21  1  0  0  0  0
  1 22  1  1  0  0  0
  2  1  1  0  0  0  0
  2 19  1  1  0  0  0
  3  2  1  0  0  0  0
  3 11  2  0  0  0  0
  4  3  1  0  0  0  0
  5  4  2  0  0  0  0
  5  9  1  0  0  0  0
  6  5  1  0  0  0  0
  7  6  1  0  0  0  0
  7  8  1  0  0  0  0
  8  9  1  0  0  0  0
  9 10  2  0  0  0  0
 10 11  1  0  0  0  0
 11 12  1  0  0  0  0
 12 13  1  0  0  0  0
 14 19  1  6  0  0  0
 14 13  1  0  0  0  0
 14 16  1  0  0  0  0
 14 15  1  0  0  0  0
 17 16  1  0  0  0  0
 18 17  1  0  0  0  0
 19 18  1  6  0  0  0
 19 20  1  0  0  0  0
 21 24  1  6  0  0  0
 21 20  1  0  0  0  0
 22 23  1  0  0  0  0
 24 25  1  0  0  0  0
M  END
>  <minimizedAffinity>
-7.93391514

$$$$

 OpenBabel12271915203D

 25 29  0  0  1  0  0  0  0  0999 V2000
   23.2420   65.4810   32.4830 C   0  0  1  0  0  0  0  0  0  0  0  0
   21.8840   64.9030   32.9650 C   0  0  1  0  0  0  0  0  0  0  0  0
   20.6980   65.5650   32.3260 C   0  0  0  0  0  0  0  0  0  0  0  0
   20.8080   66.9630   32.1950 C   0  0  0  0  0  0  0  0  0  0  0  0
   19.7690   67.6690   31.6190 C   0  0  0  0  0  0  0  0  0  0  0  0
   19.7230   69.0140   31.3770 O   0  0  0  0  0  0  0  0  0  0  0  0
   18.3450   69.2260   30.9800 C   0  0  0  0  0  0  0  0  0  0  0  0
   17.7520   67.9520   30.6430 O   0  0  0  0  0  0  0  0  0  0  0  0
   18.6360   67.0700   31.1970 C   0  0  0  0  0  0  0  0  0  0  0  0
   18.4800   65.7070   31.3360 C   0  0  0  0  0  0  0  0  0  0  0  0
   19.5090   64.9500   31.9150 C   0  0  0  0  0  0  0  0  0  0  0  0
   19.2110   63.4880   31.9990 C   0  0  0  0  0  0  0  0  0  0  0  0
   20.2520   62.7290   31.2240 C   0  0  0  0  0  0  0  0  0  0  0  0
   21.5640   62.5460   31.8760 N   0  0  2  0  0  0  0  0  0  0  0  0
   22.2590   62.6160   31.1080 H   0  0  0  0  0  0  0  0  0  0  0  0
   21.7020   61.1620   32.4320 C   0  0  0  0  0  0  0  0  0  0  0  0
   21.3210   61.2840   33.8960 C   0  0  0  0  0  0  0  0  0  0  0  0
   21.5380   62.7340   34.2630 C   0  0  0  0  0  0  0  0  0  0  0  0
   22.0550   63.3880   32.9870 C   0  0  2  0  0  0  0  0  0  0  0  0
   23.5510   63.2450   33.0210 C   0  0  0  0  0  0  0  0  0  0  0  0
   24.1800   64.3780   32.7420 C   0  0  2  0  0  0  0  0  0  0  0  0
   23.2430   65.8360   31.1190 O   0  0  0  0  0  0  0  0  0  0  0  0
   23.0410   65.0690   30.5600 H   0  0  0  0  0  0  0  0  0  0  0  0
   25.5500   64.4690   32.7510 O   0  0  0  0  0  0  0  0  0  0  0  0
   26.2620   63.3930   32.1360 C   0  0  0  0  0  0  0  0  0  0  0  0
  1 22  1  6  0  0  0
  1 21  1  0  0  0  0
  1  2  1  0  0  0  0
  2 19  1  6  0  0  0
  3  2  1  0  0  0  0
  4  3  1  0  0  0  0
  5  4  2  0  0  0  0
  6  5  1  0  0  0  0
  7  6  1  0  0  0  0
  8  7  1  0  0  0  0
  8  9  1  0  0  0  0
  9 10  2  0  0  0  0
  9  5  1  0  0  0  0
 10 11  1  0  0  0  0
 11 12  1  0  0  0  0
 11  3  2  0  0  0  0
 13 14  1  0  0  0  0
 13 12  1  0  0  0  0
 14 16  1  0  0  0  0
 14 19  1  1  0  0  0
 15 14  1  0  0  0  0
 16 17  1  0  0  0  0
 17 18  1  0  0  0  0
 19 20  1  1  0  0  0
 19 18  1  0  0  0  0
 21 24  1  1  0  0  0
 21 20  1  0  0  0  0
 23 22  1  0  0  0  0
 25 24  1  0  0  0  0
M  END
>  <minimizedAffinity>
-7.84782934

$$$$

 OpenBabel12271915203D

 25 29  0  0  1  0  0  0  0  0999 V2000
   21.3440   63.0790   33.6180 C   0  0  1  0  0  0  0  0  0  0  0  0
   22.0830   63.8850   32.5150 C   0  0  1  0  0  0  0  0  0  0  0  0
   21.4550   65.2200   32.2350 C   0  0  0  0  0  0  0  0  0  0  0  0
   20.0460   65.2100   32.2110 C   0  0  0  0  0  0  0  0  0  0  0  0
   19.3700   66.3900   31.9610 C   0  0  0  0  0  0  0  0  0  0  0  0
   18.0150   66.5710   31.9410 O   0  0  0  0  0  0  0  0  0  0  0  0
   17.8760   67.9160   31.4170 C   0  0  0  0  0  0  0  0  0  0  0  0
   19.1490   68.5920   31.5140 O   0  0  0  0  0  0  0  0  0  0  0  0
   20.0100   67.5510   31.7140 C   0  0  0  0  0  0  0  0  0  0  0  0
   21.3890   67.5920   31.7000 C   0  0  0  0  0  0  0  0  0  0  0  0
   22.1170   66.4190   31.9480 C   0  0  0  0  0  0  0  0  0  0  0  0
   23.6000   66.6080   31.9080 C   0  0  0  0  0  0  0  0  0  0  0  0
   24.1780   66.2300   33.2430 C   0  0  0  0  0  0  0  0  0  0  0  0
   24.3230   64.7870   33.5210 N   0  0  2  0  0  0  0  0  0  0  0  0
   24.1120   64.6840   34.5320 H   0  0  0  0  0  0  0  0  0  0  0  0
   25.7440   64.3440   33.3500 C   0  0  0  0  0  0  0  0  0  0  0  0
   25.8160   63.7820   31.9420 C   0  0  0  0  0  0  0  0  0  0  0  0
   24.4030   63.3900   31.5760 C   0  0  0  0  0  0  0  0  0  0  0  0
   23.5710   63.7330   32.8070 C   0  0  2  0  0  0  0  0  0  0  0  0
   23.5930   62.5090   33.6800 C   0  0  0  0  0  0  0  0  0  0  0  0
   22.3880   62.1700   34.1150 C   0  0  2  0  0  0  0  0  0  0  0  0
   20.8410   63.8890   34.6570 O   0  0  0  0  0  0  0  0  0  0  0  0
   21.5560   64.3830   35.0890 H   0  0  0  0  0  0  0  0  0  0  0  0
   22.1840   61.0620   34.9010 O   0  0  0  0  0  0  0  0  0  0  0  0
   23.3090   60.6060   35.6580 C   0  0  0  0  0  0  0  0  0  0  0  0
  1 21  1  0  0  0  0
  1 22  1  1  0  0  0
  2 19  1  1  0  0  0
  2  1  1  0  0  0  0
  3  2  1  0  0  0  0
  4  3  1  0  0  0  0
  5  4  2  0  0  0  0
  6  5  1  0  0  0  0
  7  8  1  0  0  0  0
  7  6  1  0  0  0  0
  8  9  1  0  0  0  0
  9  5  1  0  0  0  0
 10  9  2  0  0  0  0
 10 11  1  0  0  0  0
 11  3  2  0  0  0  0
 12 11  1  0  0  0  0
 12 13  1  0  0  0  0
 13 14  1  0  0  0  0
 14 19  1  6  0  0  0
 14 15  1  0  0  0  0
 16 14  1  0  0  0  0
 17 16  1  0  0  0  0
 18 17  1  0  0  0  0
 19 18  1  6  0  0  0
 19 20  1  0  0  0  0
 20 21  1  0  0  0  0
 21 24  1  6  0  0  0
 22 23  1  0  0  0  0
 24 25  1  0  0  0  0
M  END
>  <minimizedAffinity>
-7.37433672

$$$$

 OpenBabel12271915203D

 25 29  0  0  1  0  0  0  0  0999 V2000
   18.9020   64.0140   31.8170 C   0  0  1  0  0  0  0  0  0  0  0  0
   19.2780   65.4550   32.2580 C   0  0  1  0  0  0  0  0  0  0  0  0
   20.7570   65.7120   32.2490 C   0  0  0  0  0  0  0  0  0  0  0  0
   21.5380   64.6470   32.7420 C   0  0  0  0  0  0  0  0  0  0  0  0
   22.9130   64.7830   32.7770 C   0  0  0  0  0  0  0  0  0  0  0  0
   23.8210   63.8440   33.1820 O   0  0  0  0  0  0  0  0  0  0  0  0
   25.0630   64.5900   33.2210 C   0  0  0  0  0  0  0  0  0  0  0  0
   24.8980   65.8180   32.4780 O   0  0  0  0  0  0  0  0  0  0  0  0
   23.5380   65.9090   32.3770 C   0  0  0  0  0  0  0  0  0  0  0  0
   22.8040   66.9820   31.9160 C   0  0  0  0  0  0  0  0  0  0  0  0
   21.4060   66.8900   31.8630 C   0  0  0  0  0  0  0  0  0  0  0  0
   20.7380   68.1210   31.3390 C   0  0  0  0  0  0  0  0  0  0  0  0
   19.9520   67.7660   30.1070 C   0  0  0  0  0  0  0  0  0  0  0  0
   18.6540   67.0950   30.3170 N   0  0  2  0  0  0  0  0  0  0  0  0
   18.5730   66.4150   29.5370 H   0  0  0  0  0  0  0  0  0  0  0  0
   17.5170   68.0550   30.1470 C   0  0  0  0  0  0  0  0  0  0  0  0
   17.1740   68.5130   31.5520 C   0  0  0  0  0  0  0  0  0  0  0  0
   17.6820   67.4340   32.4800 C   0  0  0  0  0  0  0  0  0  0  0  0
   18.2890   66.3810   31.5580 C   0  0  2  0  0  0  0  0  0  0  0  0
   17.1710   65.4370   31.2110 C   0  0  0  0  0  0  0  0  0  0  0  0
   17.5160   64.1650   31.3490 C   0  0  2  0  0  0  0  0  0  0  0  0
   19.7300   63.5120   30.7920 O   0  0  0  0  0  0  0  0  0  0  0  0
   19.6880   64.0760   30.0040 H   0  0  0  0  0  0  0  0  0  0  0  0
   16.6300   63.1420   31.1120 O   0  0  0  0  0  0  0  0  0  0  0  0
   16.7790   61.9720   31.9210 C   0  0  0  0  0  0  0  0  0  0  0  0
  1 22  1  6  0  0  0
  1  2  1  0  0  0  0
  2 19  1  6  0  0  0
  3  2  1  0  0  0  0
  3  4  2  0  0  0  0
  4  5  1  0  0  0  0
  5  6  1  0  0  0  0
  6  7  1  0  0  0  0
  8  7  1  0  0  0  0
  9  8  1  0  0  0  0
  9  5  2  0  0  0  0
 10  9  1  0  0  0  0
 11 10  2  0  0  0  0
 11  3  1  0  0  0  0
 12 11  1  0  0  0  0
 13 14  1  0  0  0  0
 13 12  1  0  0  0  0
 14 19  1  1  0  0  0
 15 14  1  0  0  0  0
 16 14  1  0  0  0  0
 16 17  1  0  0  0  0
 17 18  1  0  0  0  0
 19 20  1  6  0  0  0
 19 18  1  0  0  0  0
 20 21  1  0  0  0  0
 21 24  1  1  0  0  0
 21  1  1  0  0  0  0
 23 22  1  0  0  0  0
 24 25  1  0  0  0  0
M  END
>  <minimizedAffinity>
-7.29792929

$$$$
