
 OpenBabel12271915233D

 25 29  0  0  1  0  0  0  0  0999 V2000
   19.1400   65.5110   31.5540 C   0  0  1  0  0  0  0  0  0  0  0  0
   19.6070   64.0520   31.7850 C   0  0  1  0  0  0  0  0  0  0  0  0
   20.8720   64.0010   32.5870 C   0  0  0  0  0  0  0  0  0  0  0  0
   22.0160   64.3060   31.8210 C   0  0  0  0  0  0  0  0  0  0  0  0
   23.2640   64.2990   32.3980 C   0  0  0  0  0  0  0  0  0  0  0  0
   24.4650   64.5490   31.7920 O   0  0  0  0  0  0  0  0  0  0  0  0
   25.4200   64.0960   32.7830 C   0  0  0  0  0  0  0  0  0  0  0  0
   24.7590   64.0720   34.0690 O   0  0  0  0  0  0  0  0  0  0  0  0
   23.4490   64.0290   33.7180 C   0  0  0  0  0  0  0  0  0  0  0  0
   22.3650   63.7510   34.5090 C   0  0  0  0  0  0  0  0  0  0  0  0
   21.0680   63.7190   33.9570 C   0  0  0  0  0  0  0  0  0  0  0  0
   20.0100   63.3800   34.9580 C   0  0  0  0  0  0  0  0  0  0  0  0
   19.0790   62.3600   34.3740 C   0  0  0  0  0  0  0  0  0  0  0  0
   18.0310   63.0650   33.5770 N   0  0  2  0  0  0  0  0  0  0  0  0
   17.8140   63.9700   34.0200 H   0  0  0  0  0  0  0  0  0  0  0  0
   16.8070   62.2160   33.5120 C   0  0  0  0  0  0  0  0  0  0  0  0
   17.1140   61.2340   32.3800 C   0  0  0  0  0  0  0  0  0  0  0  0
   18.2480   61.8700   31.5680 C   0  0  0  0  0  0  0  0  0  0  0  0
   18.3440   63.2750   32.1370 C   0  0  2  0  0  0  0  0  0  0  0  0
   17.2850   64.1160   31.5080 C   0  0  0  0  0  0  0  0  0  0  0  0
   17.7140   65.3250   31.2020 C   0  0  1  0  0  0  0  0  0  0  0  0
   19.2410   66.2850   32.7370 O   0  0  0  0  0  0  0  0  0  0  0  0
   19.8190   67.0480   32.5270 H   0  0  0  0  0  0  0  0  0  0  0  0
   16.8900   66.2660   30.6280 O   0  0  0  0  0  0  0  0  0  0  0  0
   17.4690   67.4360   30.0620 C   0  0  0  0  0  0  0  0  0  0  0  0
  1  2  1  0  0  0  0
  1 22  1  1  0  0  0
  2 19  1  1  0  0  0
  2  3  1  0  0  0  0
  3 11  2  0  0  0  0
  4  5  2  0  0  0  0
  4  3  1  0  0  0  0
  5  9  1  0  0  0  0
  6  5  1  0  0  0  0
  6  7  1  0  0  0  0
  7  8  1  0  0  0  0
  9  8  1  0  0  0  0
  9 10  2  0  0  0  0
 11 10  1  0  0  0  0
 11 12  1  0  0  0  0
 13 12  1  0  0  0  0
 14 19  1  6  0  0  0
 14 15  1  0  0  0  0
 14 13  1  0  0  0  0
 16 14  1  0  0  0  0
 17 16  1  0  0  0  0
 18 19  1  0  0  0  0
 18 17  1  0  0  0  0
 19 20  1  6  0  0  0
 21 24  1  1  0  0  0
 21 20  1  0  0  0  0
 21  1  1  0  0  0  0
 23 22  1  0  0  0  0
 25 24  1  0  0  0  0
M  END
>  <minimizedAffinity>
-8.56341934

$$$$

 OpenBabel12271915233D

 25 29  0  0  1  0  0  0  0  0999 V2000
   24.3160   65.5900   32.4100 C   0  0  1  0  0  0  0  0  0  0  0  0
   23.7880   64.1520   32.1830 C   0  0  1  0  0  0  0  0  0  0  0  0
   24.7480   63.1260   32.7050 C   0  0  0  0  0  0  0  0  0  0  0  0
   25.8460   62.9180   31.8450 C   0  0  0  0  0  0  0  0  0  0  0  0
   26.8220   62.0050   32.1660 C   0  0  0  0  0  0  0  0  0  0  0  0
   27.9300   61.6740   31.4340 O   0  0  0  0  0  0  0  0  0  0  0  0
   28.3960   60.4700   32.0930 C   0  0  0  0  0  0  0  0  0  0  0  0
   27.8470   60.4450   33.4300 O   0  0  0  0  0  0  0  0  0  0  0  0
   26.7900   61.2890   33.3230 C   0  0  0  0  0  0  0  0  0  0  0  0
   25.7550   61.4740   34.2030 C   0  0  0  0  0  0  0  0  0  0  0  0
   24.7160   62.3790   33.9040 C   0  0  0  0  0  0  0  0  0  0  0  0
   23.6640   62.4390   34.9650 C   0  0  0  0  0  0  0  0  0  0  0  0
   22.3090   62.3990   34.3240 C   0  0  0  0  0  0  0  0  0  0  0  0
   21.9210   63.7860   33.9300 N   0  0  2  0  0  0  0  0  0  0  0  0
   22.3010   64.4560   34.6150 H   0  0  0  0  0  0  0  0  0  0  0  0
   20.4340   63.8860   33.8790 C   0  0  0  0  0  0  0  0  0  0  0  0
   20.0850   63.3180   32.5030 C   0  0  0  0  0  0  0  0  0  0  0  0
   21.3780   63.3790   31.6820 C   0  0  0  0  0  0  0  0  0  0  0  0
   22.3110   64.2010   32.5540 C   0  0  2  0  0  0  0  0  0  0  0  0
   21.9960   65.6460   32.3560 C   0  0  0  0  0  0  0  0  0  0  0  0
   23.0800   66.3940   32.2860 C   0  0  1  0  0  0  0  0  0  0  0  0
   24.8600   65.7480   33.7090 O   0  0  0  0  0  0  0  0  0  0  0  0
   25.7870   66.0460   33.5940 H   0  0  0  0  0  0  0  0  0  0  0  0
   23.0110   67.7590   32.1230 O   0  0  0  0  0  0  0  0  0  0  0  0
   21.7630   68.3500   31.7780 C   0  0  0  0  0  0  0  0  0  0  0  0
  1 22  1  1  0  0  0
  2  1  1  0  0  0  0
  2 19  1  1  0  0  0
  2  3  1  0  0  0  0
  3 11  2  0  0  0  0
  4  5  2  0  0  0  0
  4  3  1  0  0  0  0
  5  9  1  0  0  0  0
  6  7  1  0  0  0  0
  6  5  1  0  0  0  0
  7  8  1  0  0  0  0
  9  8  1  0  0  0  0
  9 10  2  0  0  0  0
 11 10  1  0  0  0  0
 11 12  1  0  0  0  0
 13 12  1  0  0  0  0
 14 19  1  6  0  0  0
 14 13  1  0  0  0  0
 14 15  1  0  0  0  0
 16 14  1  0  0  0  0
 17 16  1  0  0  0  0
 18 17  1  0  0  0  0
 19 18  1  6  0  0  0
 20 19  1  0  0  0  0
 21 24  1  1  0  0  0
 21 20  1  0  0  0  0
 21  1  1  0  0  0  0
 23 22  1  0  0  0  0
 25 24  1  0  0  0  0
M  END
>  <minimizedAffinity>
-8.10669136

$$$$

 OpenBabel12271915233D

 25 29  0  0  1  0  0  0  0  0999 V2000
   25.1230   64.4140   31.5940 C   0  0  1  0  0  0  0  0  0  0  0  0
   24.3200   64.5910   32.9070 C   0  0  1  0  0  0  0  0  0  0  0  0
   22.9490   65.1360   32.6430 C   0  0  0  0  0  0  0  0  0  0  0  0
   22.9520   66.5230   32.3920 C   0  0  0  0  0  0  0  0  0  0  0  0
   21.7770   67.1890   32.1360 C   0  0  0  0  0  0  0  0  0  0  0  0
   21.6100   68.5260   31.8970 O   0  0  0  0  0  0  0  0  0  0  0  0
   20.1750   68.6910   32.0140 C   0  0  0  0  0  0  0  0  0  0  0  0
   19.5540   67.3980   31.8260 O   0  0  0  0  0  0  0  0  0  0  0  0
   20.5780   66.5480   32.0870 C   0  0  0  0  0  0  0  0  0  0  0  0
   20.5280   65.1940   32.3000 C   0  0  0  0  0  0  0  0  0  0  0  0
   21.7030   64.4730   32.5940 C   0  0  0  0  0  0  0  0  0  0  0  0
   21.4580   63.0140   32.8160 C   0  0  0  0  0  0  0  0  0  0  0  0
   22.2070   62.5640   34.0350 C   0  0  0  0  0  0  0  0  0  0  0  0
   23.6060   62.2200   33.6400 N   0  0  2  0  0  0  0  0  0  0  0  0
   23.6060   61.8240   32.6890 H   0  0  0  0  0  0  0  0  0  0  0  0
   24.1630   61.2350   34.6110 C   0  0  0  0  0  0  0  0  0  0  0  0
   24.6270   62.1070   35.7780 C   0  0  0  0  0  0  0  0  0  0  0  0
   24.7520   63.5280   35.2180 C   0  0  0  0  0  0  0  0  0  0  0  0
   24.5930   63.3320   33.7200 C   0  0  2  0  0  0  0  0  0  0  0  0
   25.9010   62.8850   33.1580 C   0  0  0  0  0  0  0  0  0  0  0  0
   26.1810   63.4650   32.0070 C   0  0  1  0  0  0  0  0  0  0  0  0
   24.3320   63.8320   30.5730 O   0  0  0  0  0  0  0  0  0  0  0  0
   24.3440   64.4560   29.8160 H   0  0  0  0  0  0  0  0  0  0  0  0
   27.3330   63.1790   31.3110 O   0  0  0  0  0  0  0  0  0  0  0  0
   27.7910   61.8330   31.2570 C   0  0  0  0  0  0  0  0  0  0  0  0
  1 22  1  6  0  0  0
  1 21  1  0  0  0  0
  1  2  1  0  0  0  0
  2 19  1  6  0  0  0
  3  2  1  0  0  0  0
  4  3  2  0  0  0  0
  5  4  1  0  0  0  0
  6  7  1  0  0  0  0
  6  5  1  0  0  0  0
  8  7  1  0  0  0  0
  8  9  1  0  0  0  0
  9  5  2  0  0  0  0
  9 10  1  0  0  0  0
 10 11  2  0  0  0  0
 11  3  1  0  0  0  0
 11 12  1  0  0  0  0
 12 13  1  0  0  0  0
 14 19  1  1  0  0  0
 14 13  1  0  0  0  0
 14 16  1  0  0  0  0
 15 14  1  0  0  0  0
 16 17  1  0  0  0  0
 18 17  1  0  0  0  0
 19 20  1  6  0  0  0
 19 18  1  0  0  0  0
 21 24  1  6  0  0  0
 21 20  1  0  0  0  0
 23 22  1  0  0  0  0
 25 24  1  0  0  0  0
M  END
>  <minimizedAffinity>
-7.83507776

$$$$

 OpenBabel12271915233D

 25 29  0  0  1  0  0  0  0  0999 V2000
   16.9450   63.6270   31.6540 C   0  0  1  0  0  0  0  0  0  0  0  0
   17.2720   62.7610   32.8970 C   0  0  1  0  0  0  0  0  0  0  0  0
   16.4770   61.4900   32.9040 C   0  0  0  0  0  0  0  0  0  0  0  0
   15.1440   61.6830   33.3200 C   0  0  0  0  0  0  0  0  0  0  0  0
   14.2740   60.6200   33.3910 C   0  0  0  0  0  0  0  0  0  0  0  0
   12.9660   60.6370   33.7930 O   0  0  0  0  0  0  0  0  0  0  0  0
   12.6700   59.2290   33.9650 C   0  0  0  0  0  0  0  0  0  0  0  0
   13.6330   58.4680   33.2000 O   0  0  0  0  0  0  0  0  0  0  0  0
   14.6460   59.3580   33.0460 C   0  0  0  0  0  0  0  0  0  0  0  0
   15.9250   59.1250   32.6130 C   0  0  0  0  0  0  0  0  0  0  0  0
   16.8600   60.1780   32.5490 C   0  0  0  0  0  0  0  0  0  0  0  0
   18.2090   59.7400   32.0740 C   0  0  0  0  0  0  0  0  0  0  0  0
   19.2660   60.3390   32.9540 C   0  0  0  0  0  0  0  0  0  0  0  0
   19.5880   61.7090   32.4540 N   0  0  2  0  0  0  0  0  0  0  0  0
   19.5050   61.7270   31.4270 H   0  0  0  0  0  0  0  0  0  0  0  0
   20.9750   62.0690   32.8660 C   0  0  0  0  0  0  0  0  0  0  0  0
   20.8050   62.5540   34.3060 C   0  0  0  0  0  0  0  0  0  0  0  0
   19.3180   62.8940   34.4630 C   0  0  0  0  0  0  0  0  0  0  0  0
   18.7880   62.8180   33.0420 C   0  0  2  0  0  0  0  0  0  0  0  0
   19.1120   64.0970   32.3450 C   0  0  0  0  0  0  0  0  0  0  0  0
   18.1190   64.5270   31.5910 C   0  0  1  0  0  0  0  0  0  0  0  0
   16.8800   62.8440   30.4750 O   0  0  0  0  0  0  0  0  0  0  0  0
   15.9900   62.9860   30.0900 H   0  0  0  0  0  0  0  0  0  0  0  0
   18.2170   65.6810   30.8480 O   0  0  0  0  0  0  0  0  0  0  0  0
   17.0280   66.3860   30.5090 C   0  0  0  0  0  0  0  0  0  0  0  0
  1 22  1  6  0  0  0
  1  2  1  0  0  0  0
  2  3  1  0  0  0  0
  2 19  1  6  0  0  0
  3  4  2  0  0  0  0
  4  5  1  0  0  0  0
  5  6  1  0  0  0  0
  6  7  1  0  0  0  0
  8  7  1  0  0  0  0
  9  8  1  0  0  0  0
  9  5  2  0  0  0  0
 10  9  1  0  0  0  0
 11 10  2  0  0  0  0
 11  3  1  0  0  0  0
 12 11  1  0  0  0  0
 12 13  1  0  0  0  0
 14 16  1  0  0  0  0
 14 13  1  0  0  0  0
 14 19  1  1  0  0  0
 15 14  1  0  0  0  0
 16 17  1  0  0  0  0
 17 18  1  0  0  0  0
 19 20  1  6  0  0  0
 19 18  1  0  0  0  0
 21 24  1  6  0  0  0
 21  1  1  0  0  0  0
 21 20  1  0  0  0  0
 23 22  1  0  0  0  0
 25 24  1  0  0  0  0
M  END
>  <minimizedAffinity>
-7.32725239

$$$$

 OpenBabel12271915233D

 25 29  0  0  1  0  0  0  0  0999 V2000
   17.8750   64.1220   31.7130 C   0  0  1  0  0  0  0  0  0  0  0  0
   18.2350   63.2200   32.9200 C   0  0  1  0  0  0  0  0  0  0  0  0
   17.5360   61.8960   32.8450 C   0  0  0  0  0  0  0  0  0  0  0  0
   16.1830   61.9710   33.2330 C   0  0  0  0  0  0  0  0  0  0  0  0
   15.3930   60.8460   33.2290 C   0  0  0  0  0  0  0  0  0  0  0  0
   14.0780   60.7480   33.5960 O   0  0  0  0  0  0  0  0  0  0  0  0
   13.8820   59.3150   33.6910 C   0  0  0  0  0  0  0  0  0  0  0  0
   14.9160   58.6650   32.9160 O   0  0  0  0  0  0  0  0  0  0  0  0
   15.8640   59.6330   32.8330 C   0  0  0  0  0  0  0  0  0  0  0  0
   17.1670   59.5150   32.4240 C   0  0  0  0  0  0  0  0  0  0  0  0
   18.0230   60.6350   32.4370 C   0  0  0  0  0  0  0  0  0  0  0  0
   19.4110   60.3200   31.9780 C   0  0  0  0  0  0  0  0  0  0  0  0
   20.4000   60.9490   32.9130 C   0  0  0  0  0  0  0  0  0  0  0  0
   20.6320   62.3620   32.4890 N   0  0  2  0  0  0  0  0  0  0  0  0
   20.5720   62.4260   31.4620 H   0  0  0  0  0  0  0  0  0  0  0  0
   21.9790   62.8000   32.9550 C   0  0  0  0  0  0  0  0  0  0  0  0
   21.7400   63.1980   34.4120 C   0  0  0  0  0  0  0  0  0  0  0  0
   20.2290   63.4210   34.5450 C   0  0  0  0  0  0  0  0  0  0  0  0
   19.7390   63.3790   33.1080 C   0  0  2  0  0  0  0  0  0  0  0  0
   19.9840   64.7110   32.4830 C   0  0  0  0  0  0  0  0  0  0  0  0
   18.9800   65.1060   31.7240 C   0  0  1  0  0  0  0  0  0  0  0  0
   17.8950   63.3960   30.4960 O   0  0  0  0  0  0  0  0  0  0  0  0
   17.0060   63.4930   30.0940 H   0  0  0  0  0  0  0  0  0  0  0  0
   19.0110   66.3000   31.0410 O   0  0  0  0  0  0  0  0  0  0  0  0
   19.5130   67.4580   31.7000 C   0  0  0  0  0  0  0  0  0  0  0  0
  1 22  1  6  0  0  0
  1 21  1  0  0  0  0
  1  2  1  0  0  0  0
  2 19  1  6  0  0  0
  3  2  1  0  0  0  0
  3  4  2  0  0  0  0
  5  4  1  0  0  0  0
  5  6  1  0  0  0  0
  6  7  1  0  0  0  0
  8  7  1  0  0  0  0
  9  8  1  0  0  0  0
  9  5  2  0  0  0  0
 10 11  2  0  0  0  0
 10  9  1  0  0  0  0
 11  3  1  0  0  0  0
 12 11  1  0  0  0  0
 12 13  1  0  0  0  0
 14 13  1  0  0  0  0
 14 16  1  0  0  0  0
 14 19  1  1  0  0  0
 15 14  1  0  0  0  0
 16 17  1  0  0  0  0
 17 18  1  0  0  0  0
 19 20  1  6  0  0  0
 19 18  1  0  0  0  0
 21 24  1  6  0  0  0
 21 20  1  0  0  0  0
 23 22  1  0  0  0  0
 24 25  1  0  0  0  0
M  END
>  <minimizedAffinity>
-7.2789464

$$$$

 OpenBabel12271915233D

 25 29  0  0  1  0  0  0  0  0999 V2000
   23.5060   61.1850   34.2110 C   0  0  1  0  0  0  0  0  0  0  0  0
   22.8840   62.0020   33.0510 C   0  0  1  0  0  0  0  0  0  0  0  0
   21.3860   61.9900   33.1140 C   0  0  0  0  0  0  0  0  0  0  0  0
   20.8300   60.7850   32.6380 C   0  0  0  0  0  0  0  0  0  0  0  0
   19.4670   60.6050   32.6180 C   0  0  0  0  0  0  0  0  0  0  0  0
   18.7750   59.5120   32.1710 O   0  0  0  0  0  0  0  0  0  0  0  0
   17.4150   60.0070   32.0980 C   0  0  0  0  0  0  0  0  0  0  0  0
   17.3100   61.1690   32.9530 O   0  0  0  0  0  0  0  0  0  0  0  0
   18.6060   61.5550   33.0730 C   0  0  0  0  0  0  0  0  0  0  0  0
   19.1000   62.7340   33.5670 C   0  0  0  0  0  0  0  0  0  0  0  0
   20.4890   62.9750   33.5820 C   0  0  0  0  0  0  0  0  0  0  0  0
   20.8480   64.3180   34.1360 C   0  0  0  0  0  0  0  0  0  0  0  0
   21.8700   64.9650   33.2510 C   0  0  0  0  0  0  0  0  0  0  0  0
   23.2270   64.4890   33.6550 N   0  0  2  0  0  0  0  0  0  0  0  0
   23.2470   64.3370   34.6740 H   0  0  0  0  0  0  0  0  0  0  0  0
   24.2420   65.5090   33.2650 C   0  0  0  0  0  0  0  0  0  0  0  0
   24.4970   65.2130   31.7870 C   0  0  0  0  0  0  0  0  0  0  0  0
   23.9970   63.7820   31.5530 C   0  0  0  0  0  0  0  0  0  0  0  0
   23.7210   63.2710   32.9560 C   0  0  2  0  0  0  0  0  0  0  0  0
   25.0110   62.8310   33.5630 C   0  0  0  0  0  0  0  0  0  0  0  0
   24.8910   61.7090   34.2460 C   0  0  1  0  0  0  0  0  0  0  0  0
   22.8630   61.4560   35.4440 O   0  0  0  0  0  0  0  0  0  0  0  0
   22.5340   60.5980   35.7860 H   0  0  0  0  0  0  0  0  0  0  0  0
   25.9580   61.1390   34.9010 O   0  0  0  0  0  0  0  0  0  0  0  0
   26.9110   60.3960   34.1480 C   0  0  0  0  0  0  0  0  0  0  0  0
  1 21  1  0  0  0  0
  1 22  1  1  0  0  0
  2 19  1  1  0  0  0
  2  3  1  0  0  0  0
  2  1  1  0  0  0  0
  3 11  2  0  0  0  0
  4  3  1  0  0  0  0
  5  4  2  0  0  0  0
  5  9  1  0  0  0  0
  6  5  1  0  0  0  0
  7  6  1  0  0  0  0
  7  8  1  0  0  0  0
  8  9  1  0  0  0  0
  9 10  2  0  0  0  0
 10 11  1  0  0  0  0
 11 12  1  0  0  0  0
 13 14  1  0  0  0  0
 13 12  1  0  0  0  0
 14 19  1  6  0  0  0
 14 15  1  0  0  0  0
 16 14  1  0  0  0  0
 17 16  1  0  0  0  0
 18 17  1  0  0  0  0
 19 18  1  6  0  0  0
 19 20  1  0  0  0  0
 20 21  1  0  0  0  0
 21 24  1  1  0  0  0
 22 23  1  0  0  0  0
 25 24  1  0  0  0  0
M  END
>  <minimizedAffinity>
-7.00250626

$$$$

 OpenBabel12271915233D

 25 29  0  0  1  0  0  0  0  0999 V2000
   19.0010   62.3040   33.2060 C   0  0  1  0  0  0  0  0  0  0  0  0
   17.8450   62.2270   32.1780 C   0  0  1  0  0  0  0  0  0  0  0  0
   16.8030   61.2340   32.5970 C   0  0  0  0  0  0  0  0  0  0  0  0
   17.1890   59.9010   32.3470 C   0  0  0  0  0  0  0  0  0  0  0  0
   16.3490   58.8600   32.6650 C   0  0  0  0  0  0  0  0  0  0  0  0
   16.5640   57.5230   32.4670 O   0  0  0  0  0  0  0  0  0  0  0  0
   15.2490   56.9550   32.6890 C   0  0  0  0  0  0  0  0  0  0  0  0
   14.4750   57.8970   33.4670 O   0  0  0  0  0  0  0  0  0  0  0  0
   15.1370   59.0620   33.2490 C   0  0  0  0  0  0  0  0  0  0  0  0
   14.7280   60.3390   33.5340 C   0  0  0  0  0  0  0  0  0  0  0  0
   15.5430   61.4400   33.2020 C   0  0  0  0  0  0  0  0  0  0  0  0
   14.9330   62.7560   33.5670 C   0  0  0  0  0  0  0  0  0  0  0  0
   15.0920   63.7120   32.4230 C   0  0  0  0  0  0  0  0  0  0  0  0
   16.4330   64.3620   32.5210 N   0  0  2  0  0  0  0  0  0  0  0  0
   16.6840   64.4820   33.5130 H   0  0  0  0  0  0  0  0  0  0  0  0
   16.3900   65.6860   31.8350 C   0  0  0  0  0  0  0  0  0  0  0  0
   16.5870   65.3300   30.3620 C   0  0  0  0  0  0  0  0  0  0  0  0
   17.2000   63.9250   30.3460 C   0  0  0  0  0  0  0  0  0  0  0  0
   17.5410   63.6730   31.8040 C   0  0  2  0  0  0  0  0  0  0  0  0
   18.8360   64.3450   32.1130 C   0  0  0  0  0  0  0  0  0  0  0  0
   19.6190   63.6080   32.8760 C   0  0  1  0  0  0  0  0  0  0  0  0
   18.5160   62.3300   34.5370 O   0  0  0  0  0  0  0  0  0  0  0  0
   18.9250   61.5690   35.0020 H   0  0  0  0  0  0  0  0  0  0  0  0
   20.8540   64.0500   33.2930 O   0  0  0  0  0  0  0  0  0  0  0  0
   21.8370   63.0930   33.6720 C   0  0  0  0  0  0  0  0  0  0  0  0
  1 22  1  1  0  0  0
  2 19  1  1  0  0  0
  2  3  1  0  0  0  0
  2  1  1  0  0  0  0
  3 11  1  0  0  0  0
  4  3  2  0  0  0  0
  4  5  1  0  0  0  0
  5  9  2  0  0  0  0
  6  5  1  0  0  0  0
  6  7  1  0  0  0  0
  7  8  1  0  0  0  0
  9  8  1  0  0  0  0
  9 10  1  0  0  0  0
 11 10  2  0  0  0  0
 11 12  1  0  0  0  0
 13 14  1  0  0  0  0
 13 12  1  0  0  0  0
 14 19  1  6  0  0  0
 14 15  1  0  0  0  0
 16 14  1  0  0  0  0
 17 16  1  0  0  0  0
 18 17  1  0  0  0  0
 19 18  1  6  0  0  0
 19 20  1  0  0  0  0
 20 21  1  0  0  0  0
 21  1  1  0  0  0  0
 21 24  1  1  0  0  0
 22 23  1  0  0  0  0
 24 25  1  0  0  0  0
M  END
>  <minimizedAffinity>
-6.70884514

$$$$

 OpenBabel12271915233D

 25 29  0  0  1  0  0  0  0  0999 V2000
   15.3890   66.4250   30.0160 C   0  0  1  0  0  0  0  0  0  0  0  0
   15.9940   66.3870   31.4420 C   0  0  1  0  0  0  0  0  0  0  0  0
   17.0600   65.3390   31.5580 C   0  0  0  0  0  0  0  0  0  0  0  0
   16.5340   64.0380   31.6860 C   0  0  0  0  0  0  0  0  0  0  0  0
   17.3720   62.9550   31.8100 C   0  0  0  0  0  0  0  0  0  0  0  0
   17.0220   61.6410   31.9630 O   0  0  0  0  0  0  0  0  0  0  0  0
   18.2740   61.0240   32.3530 C   0  0  0  0  0  0  0  0  0  0  0  0
   19.3540   61.8890   31.9340 O   0  0  0  0  0  0  0  0  0  0  0  0
   18.7260   63.0830   31.7900 C   0  0  0  0  0  0  0  0  0  0  0  0
   19.2850   64.3260   31.6440 C   0  0  0  0  0  0  0  0  0  0  0  0
   18.4660   65.4700   31.5400 C   0  0  0  0  0  0  0  0  0  0  0  0
   19.2430   66.7400   31.4060 C   0  0  0  0  0  0  0  0  0  0  0  0
   18.6650   67.7770   32.3230 C   0  0  0  0  0  0  0  0  0  0  0  0
   17.5300   68.4550   31.6290 N   0  0  2  0  0  0  0  0  0  0  0  0
   17.7310   68.5130   30.6200 H   0  0  0  0  0  0  0  0  0  0  0  0
   17.3480   69.8200   32.2000 C   0  0  0  0  0  0  0  0  0  0  0  0
   16.5250   69.5710   33.4640 C   0  0  0  0  0  0  0  0  0  0  0  0
   15.8890   68.1870   33.2870 C   0  0  0  0  0  0  0  0  0  0  0  0
   16.1870   67.8460   31.8380 C   0  0  2  0  0  0  0  0  0  0  0  0
   15.1840   68.5310   30.9720 C   0  0  0  0  0  0  0  0  0  0  0  0
   14.7600   67.7650   29.9850 C   0  0  1  0  0  0  0  0  0  0  0  0
   16.3940   66.3470   29.0210 O   0  0  0  0  0  0  0  0  0  0  0  0
   16.1820   65.5680   28.4640 H   0  0  0  0  0  0  0  0  0  0  0  0
   13.8450   68.2110   29.0590 O   0  0  0  0  0  0  0  0  0  0  0  0
   13.0790   67.2560   28.3330 C   0  0  0  0  0  0  0  0  0  0  0  0
  1 22  1  6  0  0  0
  1  2  1  0  0  0  0
  2  3  1  0  0  0  0
  2 19  1  6  0  0  0
  3  4  1  0  0  0  0
  4  5  2  0  0  0  0
  5  6  1  0  0  0  0
  6  7  1  0  0  0  0
  8  7  1  0  0  0  0
  9  5  1  0  0  0  0
  9  8  1  0  0  0  0
 10  9  2  0  0  0  0
 11  3  2  0  0  0  0
 11 10  1  0  0  0  0
 12 11  1  0  0  0  0
 12 13  1  0  0  0  0
 14 19  1  1  0  0  0
 14 16  1  0  0  0  0
 14 13  1  0  0  0  0
 15 14  1  0  0  0  0
 16 17  1  0  0  0  0
 18 17  1  0  0  0  0
 19 20  1  6  0  0  0
 19 18  1  0  0  0  0
 21 24  1  6  0  0  0
 21  1  1  0  0  0  0
 21 20  1  0  0  0  0
 23 22  1  0  0  0  0
 25 24  1  0  0  0  0
M  END
>  <minimizedAffinity>
-6.69965601

$$$$

 OpenBabel12271915233D

 25 29  0  0  1  0  0  0  0  0999 V2000
   13.6420   60.5440   34.7510 C   0  0  1  0  0  0  0  0  0  0  0  0
   13.8720   60.1050   33.2840 C   0  0  1  0  0  0  0  0  0  0  0  0
   15.3330   60.0280   32.9560 C   0  0  0  0  0  0  0  0  0  0  0  0
   15.9070   61.2950   32.7250 C   0  0  0  0  0  0  0  0  0  0  0  0
   17.2390   61.4100   32.4050 C   0  0  0  0  0  0  0  0  0  0  0  0
   17.9370   62.5550   32.1330 O   0  0  0  0  0  0  0  0  0  0  0  0
   19.1710   62.0470   31.5680 C   0  0  0  0  0  0  0  0  0  0  0  0
   19.3280   60.6720   31.9890 O   0  0  0  0  0  0  0  0  0  0  0  0
   18.0590   60.3270   32.3230 C   0  0  0  0  0  0  0  0  0  0  0  0
   17.5520   59.0760   32.5620 C   0  0  0  0  0  0  0  0  0  0  0  0
   16.1860   58.9060   32.8670 C   0  0  0  0  0  0  0  0  0  0  0  0
   15.8040   57.4750   33.0790 C   0  0  0  0  0  0  0  0  0  0  0  0
   14.5310   57.1860   32.3400 C   0  0  0  0  0  0  0  0  0  0  0  0
   13.3750   57.5720   33.2030 N   0  0  2  0  0  0  0  0  0  0  0  0
   13.6120   57.3980   34.1910 H   0  0  0  0  0  0  0  0  0  0  0  0
   12.1790   56.7720   32.8110 C   0  0  0  0  0  0  0  0  0  0  0  0
   11.6260   57.5280   31.6020 C   0  0  0  0  0  0  0  0  0  0  0  0
   12.2300   58.9360   31.6740 C   0  0  0  0  0  0  0  0  0  0  0  0
   12.8860   58.9680   33.0430 C   0  0  2  0  0  0  0  0  0  0  0  0
   11.8380   59.2550   34.0650 C   0  0  0  0  0  0  0  0  0  0  0  0
   12.2510   60.0990   34.9900 C   0  0  1  0  0  0  0  0  0  0  0  0
   14.5170   59.8720   35.6400 O   0  0  0  0  0  0  0  0  0  0  0  0
   15.0200   60.5640   36.1200 H   0  0  0  0  0  0  0  0  0  0  0  0
   11.4440   60.4840   36.0370 O   0  0  0  0  0  0  0  0  0  0  0  0
   11.5480   61.8130   36.5350 C   0  0  0  0  0  0  0  0  0  0  0  0
  1 21  1  0  0  0  0
  1 22  1  1  0  0  0
  2 19  1  1  0  0  0
  2  1  1  0  0  0  0
  3  2  1  0  0  0  0
  4  3  2  0  0  0  0
  5  4  1  0  0  0  0
  6  5  1  0  0  0  0
  7  8  1  0  0  0  0
  7  6  1  0  0  0  0
  8  9  1  0  0  0  0
  9  5  2  0  0  0  0
  9 10  1  0  0  0  0
 10 11  2  0  0  0  0
 11  3  1  0  0  0  0
 11 12  1  0  0  0  0
 13 12  1  0  0  0  0
 13 14  1  0  0  0  0
 14 19  1  6  0  0  0
 14 15  1  0  0  0  0
 16 14  1  0  0  0  0
 17 18  1  0  0  0  0
 17 16  1  0  0  0  0
 19 18  1  6  0  0  0
 19 20  1  0  0  0  0
 20 21  1  0  0  0  0
 21 24  1  1  0  0  0
 22 23  1  0  0  0  0
 24 25  1  0  0  0  0
M  END
>  <minimizedAffinity>
-6.53527975

$$$$
