
 OpenBabel12271915133D

 37 41  0  0  1  0  0  0  0  0999 V2000
   21.1710   64.6550   32.5840 C   0  0  2  0  0  0  0  0  0  0  0  0
   21.1750   63.7550   31.4420 O   0  0  0  0  0  0  0  0  0  0  0  0
   20.8940   62.4240   31.4650 C   0  0  0  0  0  0  0  0  0  0  0  0
   20.7750   61.8360   30.3950 O   0  0  0  0  0  0  0  0  0  0  0  0
   20.7340   61.8020   32.7780 C   0  0  1  0  0  0  0  0  0  0  0  0
   20.8120   62.4500   33.9920 C   0  0  0  0  0  0  0  0  0  0  0  0
   20.6520   62.0170   35.1360 O   0  0  0  0  0  0  0  0  0  0  0  0
   21.1360   63.9370   33.9700 C   0  0  0  0  0  0  0  0  0  0  0  0
   19.9100   65.5150   32.4320 C   0  0  0  0  0  0  0  0  0  0  0  0
   20.0800   66.9160   31.7740 C   0  0  0  0  0  0  0  0  0  0  0  0
   18.8470   67.1040   30.8690 C   0  0  0  0  0  0  0  0  0  0  0  0
   17.9090   65.9970   31.3150 C   0  0  0  0  0  0  0  0  0  0  0  0
   18.8680   64.8600   31.5060 C   0  0  0  0  0  0  0  0  0  0  0  0
   20.4100   60.3200   32.8240 C   0  0  0  0  0  0  0  0  0  0  0  0
   18.9180   60.0260   32.7660 C   0  0  0  0  0  0  0  0  0  0  0  0
   18.3700   58.7650   32.7870 N   0  0  0  0  0  0  0  0  0  0  0  0
   17.0710   58.9560   32.7140 C   0  0  0  0  0  0  0  0  0  0  0  0
   16.0140   58.0600   32.6960 N   0  0  0  0  0  0  0  0  0  0  0  0
   14.8190   58.5050   32.5820 C   0  0  0  0  0  0  0  0  0  0  0  0
   13.6570   57.5160   32.5480 C   0  0  0  0  0  0  0  0  0  0  0  0
   14.4780   59.9720   32.4830 C   0  0  0  0  0  0  0  0  0  0  0  0
   15.5050   60.8140   32.5030 C   0  0  0  0  0  0  0  0  0  0  0  0
   15.3280   62.3150   32.4030 C   0  0  0  0  0  0  0  0  0  0  0  0
   16.8370   60.3230   32.6220 N   0  0  0  0  0  0  0  0  0  0  0  0
   17.9790   61.0040   32.6430 N   0  0  0  0  0  0  0  0  0  0  0  0
   22.5040   65.4360   32.3860 C   0  0  0  0  0  0  0  0  0  0  0  0
   23.6880   65.3560   33.3770 C   0  0  0  0  0  0  0  0  0  0  0  0
   25.4050   62.0280   34.0080 C   0  0  0  0  0  0  0  0  0  0  0  0
   26.2750   61.9550   32.9780 N   0  0  0  0  0  0  0  0  0  0  0  0
   26.3740   62.9940   32.1300 C   0  0  0  0  0  0  0  0  0  0  0  0
   25.5590   64.1360   32.2330 C   0  0  0  0  0  0  0  0  0  0  0  0
   24.6400   64.1950   33.2730 C   0  0  0  0  0  0  0  0  0  0  0  0
   24.5720   63.1420   34.1730 C   0  0  0  0  0  0  0  0  0  0  0  0
   23.9340   60.7780   35.6210 C   0  0  0  0  0  0  0  0  0  0  0  0
   25.3160   60.8630   34.9700 C   0  0  0  0  0  0  0  0  0  0  0  0
   27.3630   62.9120   30.9930 C   0  0  0  0  0  0  0  0  0  0  0  0
   28.1850   61.6340   31.0940 C   0  0  0  0  0  0  0  0  0  0  0  0
  1 26  1  6  0  0  0
  1  8  1  0  0  0  0
  2  3  1  0  0  0  0
  2  1  1  0  0  0  0
  3  5  1  0  0  0  0
  4  3  2  0  0  0  0
  5 14  1  6  0  0  0
  5  6  1  0  0  0  0
  6  7  2  0  0  0  0
  8  6  1  0  0  0  0
  9  1  1  0  0  0  0
 10  9  1  0  0  0  0
 11 12  1  0  0  0  0
 11 10  1  0  0  0  0
 12 13  1  0  0  0  0
 13  9  1  0  0  0  0
 15 16  2  0  0  0  0
 15 14  1  0  0  0  0
 17 16  2  0  0  0  0
 18 17  2  0  0  0  0
 19 18  2  0  0  0  0
 20 19  1  0  0  0  0
 21 22  2  0  0  0  0
 21 19  1  0  0  0  0
 22 24  1  0  0  0  0
 23 22  1  0  0  0  0
 24 25  1  0  0  0  0
 24 17  1  0  0  0  0
 25 15  2  0  0  0  0
 26 27  1  0  0  0  0
 28 33  1  0  0  0  0
 28 35  1  0  0  0  0
 29 28  2  0  0  0  0
 30 31  1  0  0  0  0
 30 29  2  0  0  0  0
 31 32  1  0  0  0  0
 32 27  1  0  0  0  0
 32 33  2  0  0  0  0
 35 34  1  0  0  0  0
 36 37  1  0  0  0  0
 36 30  1  0  0  0  0
M  END
>  <minimizedAffinity>
-11.1797657

$$$$

 OpenBabel12271915133D

 37 41  0  0  1  0  0  0  0  0999 V2000
   21.0030   64.4260   32.6830 C   0  0  2  0  0  0  0  0  0  0  0  0
   20.5110   63.7520   33.8750 O   0  0  0  0  0  0  0  0  0  0  0  0
   20.3420   62.4110   34.0290 C   0  0  0  0  0  0  0  0  0  0  0  0
   20.0790   61.9830   35.1480 O   0  0  0  0  0  0  0  0  0  0  0  0
   20.5100   61.5800   32.8380 C   0  0  1  0  0  0  0  0  0  0  0  0
   20.8550   62.0300   31.5820 C   0  0  0  0  0  0  0  0  0  0  0  0
   21.0560   61.4030   30.5400 O   0  0  0  0  0  0  0  0  0  0  0  0
   21.0360   63.5310   31.4040 C   0  0  0  0  0  0  0  0  0  0  0  0
   22.4310   64.8760   33.0180 C   0  0  0  0  0  0  0  0  0  0  0  0
   23.2240   64.0160   34.0460 C   0  0  0  0  0  0  0  0  0  0  0  0
   24.6680   63.9530   33.5100 C   0  0  0  0  0  0  0  0  0  0  0  0
   24.6950   65.0280   32.4390 C   0  0  0  0  0  0  0  0  0  0  0  0
   23.3580   64.8270   31.7890 C   0  0  0  0  0  0  0  0  0  0  0  0
   20.3350   60.0800   32.9910 C   0  0  0  0  0  0  0  0  0  0  0  0
   18.8880   59.6250   32.8760 C   0  0  0  0  0  0  0  0  0  0  0  0
   18.4850   58.3110   32.8270 N   0  0  0  0  0  0  0  0  0  0  0  0
   17.1750   58.3590   32.7250 C   0  0  0  0  0  0  0  0  0  0  0  0
   16.2260   57.3530   32.6380 N   0  0  0  0  0  0  0  0  0  0  0  0
   14.9920   57.6680   32.5060 C   0  0  0  0  0  0  0  0  0  0  0  0
   13.9490   56.5580   32.3960 C   0  0  0  0  0  0  0  0  0  0  0  0
   14.4910   59.0900   32.4590 C   0  0  0  0  0  0  0  0  0  0  0  0
   15.4160   60.0390   32.5450 C   0  0  0  0  0  0  0  0  0  0  0  0
   15.0740   61.5150   32.5030 C   0  0  0  0  0  0  0  0  0  0  0  0
   16.7910   59.6950   32.6830 N   0  0  0  0  0  0  0  0  0  0  0  0
   17.8490   60.4970   32.7670 N   0  0  0  0  0  0  0  0  0  0  0  0
   19.9850   65.5950   32.5290 C   0  0  0  0  0  0  0  0  0  0  0  0
   20.3410   66.9490   31.8740 C   0  0  0  0  0  0  0  0  0  0  0  0
   17.1090   68.8810   31.3800 C   0  0  0  0  0  0  0  0  0  0  0  0
   17.3450   70.0160   32.0720 N   0  0  0  0  0  0  0  0  0  0  0  0
   18.5560   70.2030   32.6280 C   0  0  0  0  0  0  0  0  0  0  0  0
   19.5720   69.2330   32.5730 C   0  0  0  0  0  0  0  0  0  0  0  0
   19.3160   68.0510   31.8900 C   0  0  0  0  0  0  0  0  0  0  0  0
   18.0830   67.8790   31.2790 C   0  0  0  0  0  0  0  0  0  0  0  0
   15.6200   67.2980   30.1120 C   0  0  0  0  0  0  0  0  0  0  0  0
   15.7520   68.6880   30.7400 C   0  0  0  0  0  0  0  0  0  0  0  0
   18.8170   71.4830   33.3830 C   0  0  0  0  0  0  0  0  0  0  0  0
   17.6830   71.7670   34.3590 C   0  0  0  0  0  0  0  0  0  0  0  0
  1 26  1  6  0  0  0
  1  9  1  0  0  0  0
  1  2  1  0  0  0  0
  2  3  1  0  0  0  0
  3  4  2  0  0  0  0
  5 14  1  1  0  0  0
  5  3  1  0  0  0  0
  6  5  1  0  0  0  0
  7  6  2  0  0  0  0
  8  6  1  0  0  0  0
  8  1  1  0  0  0  0
  9 10  1  0  0  0  0
 11 10  1  0  0  0  0
 12 11  1  0  0  0  0
 13 12  1  0  0  0  0
 13  9  1  0  0  0  0
 15 14  1  0  0  0  0
 16 15  2  0  0  0  0
 17 16  2  0  0  0  0
 18 17  2  0  0  0  0
 19 18  2  0  0  0  0
 20 19  1  0  0  0  0
 21 19  1  0  0  0  0
 21 22  2  0  0  0  0
 22 24  1  0  0  0  0
 23 22  1  0  0  0  0
 24 17  1  0  0  0  0
 24 25  1  0  0  0  0
 25 15  2  0  0  0  0
 27 32  1  0  0  0  0
 27 26  2  0  0  0  0
 28 29  2  0  0  0  0
 29 30  2  0  0  0  0
 30 36  1  0  0  0  0
 31 30  1  0  0  0  0
 32 31  2  0  0  0  0
 33 28  1  0  0  0  0
 33 32  1  0  0  0  0
 34 35  1  0  0  0  0
 35 28  1  0  0  0  0
 36 37  1  0  0  0  0
M  END
>  <minimizedAffinity>
-9.23824978

$$$$

 OpenBabel12271915133D

 37 41  0  0  1  0  0  0  0  0999 V2000
   20.9160   64.4320   32.6280 C   0  0  2  0  0  0  0  0  0  0  0  0
   20.4430   63.7680   33.8320 O   0  0  0  0  0  0  0  0  0  0  0  0
   20.2980   62.4270   34.0080 C   0  0  0  0  0  0  0  0  0  0  0  0
   20.0490   62.0110   35.1350 O   0  0  0  0  0  0  0  0  0  0  0  0
   20.4730   61.5810   32.8290 C   0  0  1  0  0  0  0  0  0  0  0  0
   20.8030   62.0180   31.5640 C   0  0  0  0  0  0  0  0  0  0  0  0
   21.0080   61.3780   30.5300 O   0  0  0  0  0  0  0  0  0  0  0  0
   20.9560   63.5190   31.3630 C   0  0  0  0  0  0  0  0  0  0  0  0
   22.3380   64.9120   32.9470 C   0  0  0  0  0  0  0  0  0  0  0  0
   23.1330   64.1110   34.0190 C   0  0  0  0  0  0  0  0  0  0  0  0
   24.5810   64.0360   33.4930 C   0  0  0  0  0  0  0  0  0  0  0  0
   24.6030   65.0570   32.3710 C   0  0  0  0  0  0  0  0  0  0  0  0
   23.2710   64.8120   31.7260 C   0  0  0  0  0  0  0  0  0  0  0  0
   20.3250   60.0810   33.0060 C   0  0  0  0  0  0  0  0  0  0  0  0
   18.8880   59.5970   32.8920 C   0  0  0  0  0  0  0  0  0  0  0  0
   18.5090   58.2760   32.8660 N   0  0  0  0  0  0  0  0  0  0  0  0
   17.1980   58.2970   32.7550 C   0  0  0  0  0  0  0  0  0  0  0  0
   16.2690   57.2730   32.6820 N   0  0  0  0  0  0  0  0  0  0  0  0
   15.0290   57.5620   32.5390 C   0  0  0  0  0  0  0  0  0  0  0  0
   14.0080   56.4320   32.4430 C   0  0  0  0  0  0  0  0  0  0  0  0
   14.5030   58.9740   32.4630 C   0  0  0  0  0  0  0  0  0  0  0  0
   15.4100   59.9420   32.5360 C   0  0  0  0  0  0  0  0  0  0  0  0
   15.0410   61.4090   32.4660 C   0  0  0  0  0  0  0  0  0  0  0  0
   16.7910   59.6250   32.6880 N   0  0  0  0  0  0  0  0  0  0  0  0
   17.8330   60.4480   32.7620 N   0  0  0  0  0  0  0  0  0  0  0  0
   19.8770   65.5810   32.4620 C   0  0  0  0  0  0  0  0  0  0  0  0
   20.2520   67.0010   31.9810 C   0  0  0  0  0  0  0  0  0  0  0  0
   18.4980   70.3310   32.4920 C   0  0  0  0  0  0  0  0  0  0  0  0
   17.3110   70.1250   31.8840 N   0  0  0  0  0  0  0  0  0  0  0  0
   17.0350   68.9080   31.3810 C   0  0  0  0  0  0  0  0  0  0  0  0
   17.9620   67.8510   31.4070 C   0  0  0  0  0  0  0  0  0  0  0  0
   19.1970   68.0740   32.0030 C   0  0  0  0  0  0  0  0  0  0  0  0
   19.4610   69.3160   32.5610 C   0  0  0  0  0  0  0  0  0  0  0  0
   19.1290   72.7110   31.9790 C   0  0  0  0  0  0  0  0  0  0  0  0
   18.7920   71.6970   33.0730 C   0  0  0  0  0  0  0  0  0  0  0  0
   15.6980   68.6810   30.7210 C   0  0  0  0  0  0  0  0  0  0  0  0
   15.6370   67.2900   30.1050 C   0  0  0  0  0  0  0  0  0  0  0  0
  1 26  1  6  0  0  0
  1  9  1  0  0  0  0
  1  2  1  0  0  0  0
  2  3  1  0  0  0  0
  3  4  2  0  0  0  0
  5 14  1  1  0  0  0
  5  3  1  0  0  0  0
  6  5  1  0  0  0  0
  7  6  2  0  0  0  0
  8  6  1  0  0  0  0
  8  1  1  0  0  0  0
  9 10  1  0  0  0  0
 11 10  1  0  0  0  0
 12 11  1  0  0  0  0
 13 12  1  0  0  0  0
 13  9  1  0  0  0  0
 15 14  1  0  0  0  0
 16 15  2  0  0  0  0
 17 16  2  0  0  0  0
 18 17  2  0  0  0  0
 19 18  2  0  0  0  0
 20 19  1  0  0  0  0
 21 22  2  0  0  0  0
 21 19  1  0  0  0  0
 22 24  1  0  0  0  0
 23 22  1  0  0  0  0
 24 17  1  0  0  0  0
 24 25  1  0  0  0  0
 25 15  2  0  0  0  0
 27 32  1  0  0  0  0
 27 26  2  0  0  0  0
 28 33  1  0  0  0  0
 28 35  1  0  0  0  0
 29 28  2  0  0  0  0
 30 31  1  0  0  0  0
 30 29  2  0  0  0  0
 31 32  1  0  0  0  0
 32 33  2  0  0  0  0
 34 35  1  0  0  0  0
 36 30  1  0  0  0  0
 37 36  1  0  0  0  0
M  END
>  <minimizedAffinity>
-9.23769855

$$$$

 OpenBabel12271915133D

 37 41  0  0  1  0  0  0  0  0999 V2000
   18.2500   62.7430   33.0460 C   0  0  2  0  0  0  0  0  0  0  0  0
   18.7070   61.4570   32.5440 O   0  0  0  0  0  0  0  0  0  0  0  0
   17.9280   60.3730   32.2810 C   0  0  0  0  0  0  0  0  0  0  0  0
   18.4370   59.4180   31.7030 O   0  0  0  0  0  0  0  0  0  0  0  0
   16.5280   60.4450   32.6960 C   0  0  1  0  0  0  0  0  0  0  0  0
   15.9210   61.5250   33.2990 C   0  0  0  0  0  0  0  0  0  0  0  0
   14.7480   61.6880   33.6430 O   0  0  0  0  0  0  0  0  0  0  0  0
   16.7920   62.7360   33.6030 C   0  0  0  0  0  0  0  0  0  0  0  0
   18.3280   63.7070   31.8550 C   0  0  0  0  0  0  0  0  0  0  0  0
   16.9920   64.0590   31.1380 C   0  0  0  0  0  0  0  0  0  0  0  0
   17.0820   65.5610   30.8030 C   0  0  0  0  0  0  0  0  0  0  0  0
   18.5480   65.8860   31.0240 C   0  0  0  0  0  0  0  0  0  0  0  0
   18.8360   65.1010   32.2690 C   0  0  0  0  0  0  0  0  0  0  0  0
   15.6410   59.2500   32.4020 C   0  0  0  0  0  0  0  0  0  0  0  0
   15.8400   58.0960   33.3730 C   0  0  0  0  0  0  0  0  0  0  0  0
   16.7620   57.0890   33.2100 N   0  0  0  0  0  0  0  0  0  0  0  0
   16.6030   56.3070   34.2560 C   0  0  0  0  0  0  0  0  0  0  0  0
   17.2490   55.1420   34.6330 N   0  0  0  0  0  0  0  0  0  0  0  0
   16.8780   54.5380   35.7000 C   0  0  0  0  0  0  0  0  0  0  0  0
   17.5810   53.2450   36.1070 C   0  0  0  0  0  0  0  0  0  0  0  0
   15.7730   55.0340   36.6010 C   0  0  0  0  0  0  0  0  0  0  0  0
   15.1680   56.1530   36.2220 C   0  0  0  0  0  0  0  0  0  0  0  0
   14.0350   56.7730   37.0140 C   0  0  0  0  0  0  0  0  0  0  0  0
   15.5720   56.8250   35.0320 N   0  0  0  0  0  0  0  0  0  0  0  0
   15.0790   57.9350   34.4900 N   0  0  0  0  0  0  0  0  0  0  0  0
   19.2840   63.0360   34.1740 C   0  0  0  0  0  0  0  0  0  0  0  0
   20.6160   62.2660   34.3240 C   0  0  0  0  0  0  0  0  0  0  0  0
   24.2690   62.8790   33.4850 C   0  0  0  0  0  0  0  0  0  0  0  0
   24.2300   64.0970   32.9050 N   0  0  0  0  0  0  0  0  0  0  0  0
   23.0590   64.7590   32.8520 C   0  0  0  0  0  0  0  0  0  0  0  0
   21.8540   64.2040   33.3210 C   0  0  0  0  0  0  0  0  0  0  0  0
   21.8910   62.9360   33.8850 C   0  0  0  0  0  0  0  0  0  0  0  0
   23.1060   62.2750   33.9810 C   0  0  0  0  0  0  0  0  0  0  0  0
   25.6170   61.1450   34.7130 C   0  0  0  0  0  0  0  0  0  0  0  0
   25.5940   62.1510   33.5600 C   0  0  0  0  0  0  0  0  0  0  0  0
   23.0280   66.1280   32.2210 C   0  0  0  0  0  0  0  0  0  0  0  0
   24.4390   66.5950   31.8910 C   0  0  0  0  0  0  0  0  0  0  0  0
  1  8  1  0  0  0  0
  1 26  1  1  0  0  0
  2  1  1  0  0  0  0
  3  2  1  0  0  0  0
  3  5  1  0  0  0  0
  4  3  2  0  0  0  0
  5 14  1  6  0  0  0
  5  6  1  0  0  0  0
  6  8  1  0  0  0  0
  6  7  2  0  0  0  0
  9 13  1  0  0  0  0
  9  1  1  0  0  0  0
 10  9  1  0  0  0  0
 11 12  1  0  0  0  0
 11 10  1  0  0  0  0
 12 13  1  0  0  0  0
 14 15  1  0  0  0  0
 15 25  2  0  0  0  0
 16 15  2  0  0  0  0
 16 17  2  0  0  0  0
 17 18  2  0  0  0  0
 17 24  1  0  0  0  0
 18 19  2  0  0  0  0
 19 20  1  0  0  0  0
 19 21  1  0  0  0  0
 22 21  2  0  0  0  0
 22 23  1  0  0  0  0
 24 22  1  0  0  0  0
 25 24  1  0  0  0  0
 26 27  1  0  0  0  0
 28 35  1  0  0  0  0
 28 33  1  0  0  0  0
 29 28  2  0  0  0  0
 30 29  2  0  0  0  0
 30 31  1  0  0  0  0
 31 32  1  0  0  0  0
 32 33  2  0  0  0  0
 32 27  1  0  0  0  0
 35 34  1  0  0  0  0
 36 30  1  0  0  0  0
 37 36  1  0  0  0  0
M  END
>  <minimizedAffinity>
-8.970788

$$$$

 OpenBabel12271915133D

 37 41  0  0  1  0  0  0  0  0999 V2000
   17.4310   61.6670   32.6670 C   0  0  2  0  0  0  0  0  0  0  0  0
   18.3310   61.5160   33.7990 O   0  0  0  0  0  0  0  0  0  0  0  0
   19.3000   62.3910   34.1800 C   0  0  0  0  0  0  0  0  0  0  0  0
   19.8640   62.2040   35.2540 O   0  0  0  0  0  0  0  0  0  0  0  0
   19.5780   63.5070   33.2780 C   0  0  1  0  0  0  0  0  0  0  0  0
   18.9240   63.7680   32.0930 C   0  0  0  0  0  0  0  0  0  0  0  0
   19.0640   64.6990   31.2960 O   0  0  0  0  0  0  0  0  0  0  0  0
   17.8460   62.7850   31.6590 C   0  0  0  0  0  0  0  0  0  0  0  0
   16.0620   62.0150   33.2660 C   0  0  0  0  0  0  0  0  0  0  0  0
   15.5410   63.4660   33.0500 C   0  0  0  0  0  0  0  0  0  0  0  0
   14.0300   63.3290   32.7740 C   0  0  0  0  0  0  0  0  0  0  0  0
   13.7250   61.8980   33.1800 C   0  0  0  0  0  0  0  0  0  0  0  0
   14.9270   61.1800   32.6450 C   0  0  0  0  0  0  0  0  0  0  0  0
   20.6480   64.5010   33.6900 C   0  0  0  0  0  0  0  0  0  0  0  0
   22.0640   64.0070   33.4310 C   0  0  0  0  0  0  0  0  0  0  0  0
   22.8200   64.3460   32.3340 N   0  0  0  0  0  0  0  0  0  0  0  0
   23.9600   63.7100   32.4950 C   0  0  0  0  0  0  0  0  0  0  0  0
   25.1030   63.6690   31.7140 N   0  0  0  0  0  0  0  0  0  0  0  0
   26.0840   62.9310   32.0790 C   0  0  0  0  0  0  0  0  0  0  0  0
   27.3370   62.8750   31.2090 C   0  0  0  0  0  0  0  0  0  0  0  0
   26.0840   62.1020   33.3400 C   0  0  0  0  0  0  0  0  0  0  0  0
   24.9790   62.1560   34.0750 C   0  0  0  0  0  0  0  0  0  0  0  0
   24.8210   61.3750   35.3640 C   0  0  0  0  0  0  0  0  0  0  0  0
   23.8820   62.9700   33.6700 N   0  0  0  0  0  0  0  0  0  0  0  0
   22.7020   63.1370   34.2600 N   0  0  0  0  0  0  0  0  0  0  0  0
   17.5000   60.2580   32.0070 C   0  0  0  0  0  0  0  0  0  0  0  0
   18.0620   59.0110   32.7280 C   0  0  0  0  0  0  0  0  0  0  0  0
   16.5560   55.9010   34.3040 C   0  0  0  0  0  0  0  0  0  0  0  0
   15.3250   55.8660   33.7500 N   0  0  0  0  0  0  0  0  0  0  0  0
   15.0010   56.7810   32.8180 C   0  0  0  0  0  0  0  0  0  0  0  0
   15.8720   57.8180   32.4400 C   0  0  0  0  0  0  0  0  0  0  0  0
   17.1260   57.8730   33.0370 C   0  0  0  0  0  0  0  0  0  0  0  0
   17.4740   56.9010   33.9630 C   0  0  0  0  0  0  0  0  0  0  0  0
   18.2170   54.1310   34.9670 C   0  0  0  0  0  0  0  0  0  0  0  0
   16.9190   54.8550   35.3350 C   0  0  0  0  0  0  0  0  0  0  0  0
   13.6310   56.7230   32.1900 C   0  0  0  0  0  0  0  0  0  0  0  0
   12.9240   58.0650   32.3280 C   0  0  0  0  0  0  0  0  0  0  0  0
  1 26  1  6  0  0  0
  1  9  1  0  0  0  0
  1  2  1  0  0  0  0
  2  3  1  0  0  0  0
  3  4  2  0  0  0  0
  5 14  1  1  0  0  0
  5  3  1  0  0  0  0
  6  5  1  0  0  0  0
  7  6  2  0  0  0  0
  8  6  1  0  0  0  0
  8  1  1  0  0  0  0
 10  9  1  0  0  0  0
 11 10  1  0  0  0  0
 11 12  1  0  0  0  0
 13 12  1  0  0  0  0
 13  9  1  0  0  0  0
 15 14  1  0  0  0  0
 15 25  2  0  0  0  0
 16 17  2  0  0  0  0
 16 15  2  0  0  0  0
 17 24  1  0  0  0  0
 18 19  2  0  0  0  0
 18 17  2  0  0  0  0
 19 21  1  0  0  0  0
 20 19  1  0  0  0  0
 21 22  2  0  0  0  0
 22 23  1  0  0  0  0
 24 22  1  0  0  0  0
 24 25  1  0  0  0  0
 26 27  1  0  0  0  0
 27 32  1  0  0  0  0
 28 35  1  0  0  0  0
 29 28  2  0  0  0  0
 30 29  2  0  0  0  0
 31 30  1  0  0  0  0
 31 32  1  0  0  0  0
 32 33  2  0  0  0  0
 33 28  1  0  0  0  0
 34 35  1  0  0  0  0
 36 37  1  0  0  0  0
 36 30  1  0  0  0  0
M  END
>  <minimizedAffinity>
-8.86320686

$$$$

 OpenBabel12271915133D

 37 41  0  0  1  0  0  0  0  0999 V2000
   18.6640   69.0310   31.8860 C   0  0  2  0  0  0  0  0  0  0  0  0
   18.4180   68.0950   30.8010 O   0  0  0  0  0  0  0  0  0  0  0  0
   17.2630   67.4130   30.5730 C   0  0  0  0  0  0  0  0  0  0  0  0
   17.1530   66.7890   29.5220 O   0  0  0  0  0  0  0  0  0  0  0  0
   16.2290   67.4960   31.6030 C   0  0  1  0  0  0  0  0  0  0  0  0
   16.3070   68.2300   32.7660 C   0  0  0  0  0  0  0  0  0  0  0  0
   15.4750   68.3900   33.6630 O   0  0  0  0  0  0  0  0  0  0  0  0
   17.6010   68.9870   33.0290 C   0  0  0  0  0  0  0  0  0  0  0  0
   18.6540   70.4250   31.2440 C   0  0  0  0  0  0  0  0  0  0  0  0
   17.3290   70.8870   30.5700 C   0  0  0  0  0  0  0  0  0  0  0  0
   17.1790   72.3800   30.9250 C   0  0  0  0  0  0  0  0  0  0  0  0
   18.5490   72.7540   31.4620 C   0  0  0  0  0  0  0  0  0  0  0  0
   18.8840   71.5420   32.2790 C   0  0  0  0  0  0  0  0  0  0  0  0
   14.9290   66.7500   31.3620 C   0  0  0  0  0  0  0  0  0  0  0  0
   14.8900   65.3770   32.0160 C   0  0  0  0  0  0  0  0  0  0  0  0
   13.9080   64.9520   32.8790 N   0  0  0  0  0  0  0  0  0  0  0  0
   14.2520   63.7260   33.2110 C   0  0  0  0  0  0  0  0  0  0  0  0
   13.6480   62.8010   34.0470 N   0  0  0  0  0  0  0  0  0  0  0  0
   14.2130   61.6670   34.2360 C   0  0  0  0  0  0  0  0  0  0  0  0
   13.5540   60.6540   35.1680 C   0  0  0  0  0  0  0  0  0  0  0  0
   15.5090   61.2580   33.5800 C   0  0  0  0  0  0  0  0  0  0  0  0
   16.0710   62.1590   32.7820 C   0  0  0  0  0  0  0  0  0  0  0  0
   17.3760   61.9020   32.0580 C   0  0  0  0  0  0  0  0  0  0  0  0
   15.4500   63.4240   32.5740 N   0  0  0  0  0  0  0  0  0  0  0  0
   15.8670   64.4470   31.8330 N   0  0  0  0  0  0  0  0  0  0  0  0
   20.0620   68.5740   32.3970 C   0  0  0  0  0  0  0  0  0  0  0  0
   21.1150   67.8940   31.4930 C   0  0  0  0  0  0  0  0  0  0  0  0
   23.6940   65.3320   32.5930 C   0  0  0  0  0  0  0  0  0  0  0  0
   22.9200   64.3030   33.0000 N   0  0  0  0  0  0  0  0  0  0  0  0
   21.5860   64.3900   32.8520 C   0  0  0  0  0  0  0  0  0  0  0  0
   20.9530   65.5400   32.3460 C   0  0  0  0  0  0  0  0  0  0  0  0
   21.7490   66.6110   31.9600 C   0  0  0  0  0  0  0  0  0  0  0  0
   23.1270   66.5010   32.0720 C   0  0  0  0  0  0  0  0  0  0  0  0
   25.6860   63.8060   32.4120 C   0  0  0  0  0  0  0  0  0  0  0  0
   25.1950   65.2170   32.7440 C   0  0  0  0  0  0  0  0  0  0  0  0
   20.7300   63.2270   33.2900 C   0  0  0  0  0  0  0  0  0  0  0  0
   20.0770   63.5240   34.6330 C   0  0  0  0  0  0  0  0  0  0  0  0
  1 26  1  1  0  0  0
  1  8  1  0  0  0  0
  2  1  1  0  0  0  0
  3  2  1  0  0  0  0
  3  5  1  0  0  0  0
  4  3  2  0  0  0  0
  5 14  1  6  0  0  0
  5  6  1  0  0  0  0
  6  8  1  0  0  0  0
  6  7  2  0  0  0  0
  9  1  1  0  0  0  0
  9 13  1  0  0  0  0
 10 11  1  0  0  0  0
 10  9  1  0  0  0  0
 11 12  1  0  0  0  0
 12 13  1  0  0  0  0
 14 15  1  0  0  0  0
 15 16  2  0  0  0  0
 16 17  2  0  0  0  0
 17 18  2  0  0  0  0
 18 19  2  0  0  0  0
 19 20  1  0  0  0  0
 21 19  1  0  0  0  0
 22 21  2  0  0  0  0
 23 22  1  0  0  0  0
 24 22  1  0  0  0  0
 24 17  1  0  0  0  0
 25 15  2  0  0  0  0
 25 24  1  0  0  0  0
 27 32  1  0  0  0  0
 27 26  1  0  0  0  0
 28 35  1  0  0  0  0
 28 29  2  0  0  0  0
 30 29  2  0  0  0  0
 30 36  1  0  0  0  0
 31 30  1  0  0  0  0
 32 33  1  0  0  0  0
 32 31  2  0  0  0  0
 33 28  1  0  0  0  0
 34 35  1  0  0  0  0
 36 37  1  0  0  0  0
M  END
>  <minimizedAffinity>
-8.82610226

$$$$

 OpenBabel12271915133D

 37 41  0  0  1  0  0  0  0  0999 V2000
   18.6160   69.1450   31.8230 C   0  0  2  0  0  0  0  0  0  0  0  0
   18.3480   68.2130   30.7390 O   0  0  0  0  0  0  0  0  0  0  0  0
   17.1940   67.5210   30.5390 C   0  0  0  0  0  0  0  0  0  0  0  0
   17.0610   66.9030   29.4880 O   0  0  0  0  0  0  0  0  0  0  0  0
   16.1880   67.5880   31.5980 C   0  0  1  0  0  0  0  0  0  0  0  0
   16.2920   68.3150   32.7640 C   0  0  0  0  0  0  0  0  0  0  0  0
   15.4850   68.4610   33.6850 O   0  0  0  0  0  0  0  0  0  0  0  0
   17.5860   69.0840   32.9950 C   0  0  0  0  0  0  0  0  0  0  0  0
   18.5740   70.5420   31.1910 C   0  0  0  0  0  0  0  0  0  0  0  0
   17.2140   71.0120   30.5950 C   0  0  0  0  0  0  0  0  0  0  0  0
   17.0900   72.5030   30.9660 C   0  0  0  0  0  0  0  0  0  0  0  0
   18.4880   72.8710   31.4280 C   0  0  0  0  0  0  0  0  0  0  0  0
   18.8640   71.6530   32.2180 C   0  0  0  0  0  0  0  0  0  0  0  0
   14.8900   66.8300   31.3900 C   0  0  0  0  0  0  0  0  0  0  0  0
   14.8830   65.4530   32.0350 C   0  0  0  0  0  0  0  0  0  0  0  0
   13.9370   65.0160   32.9310 N   0  0  0  0  0  0  0  0  0  0  0  0
   14.3000   63.7900   33.2420 C   0  0  0  0  0  0  0  0  0  0  0  0
   13.7330   62.8560   34.0930 N   0  0  0  0  0  0  0  0  0  0  0  0
   14.3110   61.7240   34.2530 C   0  0  0  0  0  0  0  0  0  0  0  0
   13.6930   60.7010   35.2020 C   0  0  0  0  0  0  0  0  0  0  0  0
   15.5830   61.3260   33.5450 C   0  0  0  0  0  0  0  0  0  0  0  0
   16.1090   62.2350   32.7330 C   0  0  0  0  0  0  0  0  0  0  0  0
   17.3880   61.9910   31.9580 C   0  0  0  0  0  0  0  0  0  0  0  0
   15.4750   63.4990   32.5570 N   0  0  0  0  0  0  0  0  0  0  0  0
   15.8570   64.5290   31.8080 N   0  0  0  0  0  0  0  0  0  0  0  0
   20.0320   68.6990   32.2920 C   0  0  0  0  0  0  0  0  0  0  0  0
   21.0000   67.8800   31.4070 C   0  0  0  0  0  0  0  0  0  0  0  0
   21.5480   64.4120   32.8560 C   0  0  0  0  0  0  0  0  0  0  0  0
   22.8950   64.3360   32.9150 N   0  0  0  0  0  0  0  0  0  0  0  0
   23.6270   65.4120   32.5700 C   0  0  0  0  0  0  0  0  0  0  0  0
   23.0470   66.5990   32.0880 C   0  0  0  0  0  0  0  0  0  0  0  0
   21.6620   66.6630   31.9950 C   0  0  0  0  0  0  0  0  0  0  0  0
   20.9090   65.5690   32.3940 C   0  0  0  0  0  0  0  0  0  0  0  0
   20.0350   63.4280   34.6080 C   0  0  0  0  0  0  0  0  0  0  0  0
   20.7330   63.2050   33.2650 C   0  0  0  0  0  0  0  0  0  0  0  0
   25.1300   65.3250   32.6590 C   0  0  0  0  0  0  0  0  0  0  0  0
   25.5960   63.8970   32.4080 C   0  0  0  0  0  0  0  0  0  0  0  0
  1 26  1  1  0  0  0
  1  8  1  0  0  0  0
  2  1  1  0  0  0  0
  3  2  1  0  0  0  0
  3  5  1  0  0  0  0
  4  3  2  0  0  0  0
  5 14  1  6  0  0  0
  5  6  1  0  0  0  0
  6  8  1  0  0  0  0
  6  7  2  0  0  0  0
  9  1  1  0  0  0  0
  9 13  1  0  0  0  0
 10 11  1  0  0  0  0
 10  9  1  0  0  0  0
 11 12  1  0  0  0  0
 12 13  1  0  0  0  0
 14 15  1  0  0  0  0
 15 16  2  0  0  0  0
 16 17  2  0  0  0  0
 17 18  2  0  0  0  0
 18 19  2  0  0  0  0
 19 20  1  0  0  0  0
 21 19  1  0  0  0  0
 22 21  2  0  0  0  0
 23 22  1  0  0  0  0
 24 22  1  0  0  0  0
 24 17  1  0  0  0  0
 25 15  2  0  0  0  0
 25 24  1  0  0  0  0
 27 32  1  0  0  0  0
 27 26  1  0  0  0  0
 28 29  2  0  0  0  0
 28 35  1  0  0  0  0
 30 36  1  0  0  0  0
 30 29  2  0  0  0  0
 31 30  1  0  0  0  0
 32 31  1  0  0  0  0
 32 33  2  0  0  0  0
 33 28  1  0  0  0  0
 35 34  1  0  0  0  0
 37 36  1  0  0  0  0
M  END
>  <minimizedAffinity>
-8.8008585

$$$$

 OpenBabel12271915133D

 37 41  0  0  1  0  0  0  0  0999 V2000
   19.1170   69.3870   31.9470 C   0  0  2  0  0  0  0  0  0  0  0  0
   18.9730   68.5180   30.7890 O   0  0  0  0  0  0  0  0  0  0  0  0
   17.8830   67.7670   30.4770 C   0  0  0  0  0  0  0  0  0  0  0  0
   17.8500   67.2170   29.3810 O   0  0  0  0  0  0  0  0  0  0  0  0
   16.8200   67.6920   31.4770 C   0  0  1  0  0  0  0  0  0  0  0  0
   16.8100   68.3410   32.6930 C   0  0  0  0  0  0  0  0  0  0  0  0
   15.9460   68.3670   33.5730 O   0  0  0  0  0  0  0  0  0  0  0  0
   18.0320   69.1750   33.0500 C   0  0  0  0  0  0  0  0  0  0  0  0
   19.0110   70.8190   31.4080 C   0  0  0  0  0  0  0  0  0  0  0  0
   17.7800   71.1540   30.5160 C   0  0  0  0  0  0  0  0  0  0  0  0
   17.3380   72.5710   30.9300 C   0  0  0  0  0  0  0  0  0  0  0  0
   18.5080   73.0810   31.7520 C   0  0  0  0  0  0  0  0  0  0  0  0
   18.8670   71.8560   32.5390 C   0  0  0  0  0  0  0  0  0  0  0  0
   15.5900   66.8680   31.1430 C   0  0  0  0  0  0  0  0  0  0  0  0
   15.6960   65.4170   31.5890 C   0  0  0  0  0  0  0  0  0  0  0  0
   16.6770   64.5450   31.1800 N   0  0  0  0  0  0  0  0  0  0  0  0
   16.4010   63.4110   31.7880 C   0  0  0  0  0  0  0  0  0  0  0  0
   17.0370   62.1800   31.7610 N   0  0  0  0  0  0  0  0  0  0  0  0
   16.5400   61.2050   32.4260 C   0  0  0  0  0  0  0  0  0  0  0  0
   17.2330   59.8460   32.3840 C   0  0  0  0  0  0  0  0  0  0  0  0
   15.2930   61.3160   33.2690 C   0  0  0  0  0  0  0  0  0  0  0  0
   14.7000   62.5050   33.2820 C   0  0  0  0  0  0  0  0  0  0  0  0
   13.4350   62.7740   34.0710 C   0  0  0  0  0  0  0  0  0  0  0  0
   15.2440   63.5910   32.5380 N   0  0  0  0  0  0  0  0  0  0  0  0
   14.7870   64.8330   32.4170 N   0  0  0  0  0  0  0  0  0  0  0  0
   20.5340   69.0030   32.4670 C   0  0  0  0  0  0  0  0  0  0  0  0
   21.5680   68.2290   31.6170 C   0  0  0  0  0  0  0  0  0  0  0  0
   21.5130   64.5310   32.4800 C   0  0  0  0  0  0  0  0  0  0  0  0
   22.8150   64.2760   32.7320 N   0  0  0  0  0  0  0  0  0  0  0  0
   23.6970   65.2920   32.7070 C   0  0  0  0  0  0  0  0  0  0  0  0
   23.3290   66.6050   32.3640 C   0  0  0  0  0  0  0  0  0  0  0  0
   21.9950   66.8590   32.0710 C   0  0  0  0  0  0  0  0  0  0  0  0
   21.0800   65.8190   32.1420 C   0  0  0  0  0  0  0  0  0  0  0  0
   20.6520   62.4800   31.3050 C   0  0  0  0  0  0  0  0  0  0  0  0
   20.5250   63.3860   32.5310 C   0  0  0  0  0  0  0  0  0  0  0  0
   25.1460   65.0020   33.0100 C   0  0  0  0  0  0  0  0  0  0  0  0
   25.6530   63.8590   32.1420 C   0  0  0  0  0  0  0  0  0  0  0  0
  1 26  1  1  0  0  0
  1  8  1  0  0  0  0
  2  1  1  0  0  0  0
  3  2  1  0  0  0  0
  3  5  1  0  0  0  0
  4  3  2  0  0  0  0
  5 14  1  6  0  0  0
  5  6  1  0  0  0  0
  6  8  1  0  0  0  0
  6  7  2  0  0  0  0
  9  1  1  0  0  0  0
  9 13  1  0  0  0  0
 10 11  1  0  0  0  0
 10  9  1  0  0  0  0
 11 12  1  0  0  0  0
 12 13  1  0  0  0  0
 14 15  1  0  0  0  0
 15 25  2  0  0  0  0
 16 15  2  0  0  0  0
 16 17  2  0  0  0  0
 17 24  1  0  0  0  0
 18 17  2  0  0  0  0
 18 19  2  0  0  0  0
 19 21  1  0  0  0  0
 20 19  1  0  0  0  0
 21 22  2  0  0  0  0
 22 23  1  0  0  0  0
 24 22  1  0  0  0  0
 25 24  1  0  0  0  0
 27 32  1  0  0  0  0
 27 26  1  0  0  0  0
 28 35  1  0  0  0  0
 28 29  2  0  0  0  0
 30 29  2  0  0  0  0
 30 36  1  0  0  0  0
 31 30  1  0  0  0  0
 32 33  1  0  0  0  0
 32 31  2  0  0  0  0
 33 28  1  0  0  0  0
 34 35  1  0  0  0  0
 37 36  1  0  0  0  0
M  END
>  <minimizedAffinity>
-8.7987299

$$$$

 OpenBabel12271915133D

 37 41  0  0  1  0  0  0  0  0999 V2000
   14.2680   67.0890   31.7460 C   0  0  2  0  0  0  0  0  0  0  0  0
   15.2630   67.1560   30.6880 O   0  0  0  0  0  0  0  0  0  0  0  0
   16.0610   66.1370   30.2680 C   0  0  0  0  0  0  0  0  0  0  0  0
   16.7300   66.3020   29.2530 O   0  0  0  0  0  0  0  0  0  0  0  0
   16.0390   64.9070   31.0590 C   0  0  1  0  0  0  0  0  0  0  0  0
   15.2580   64.6780   32.1710 C   0  0  0  0  0  0  0  0  0  0  0  0
   15.1460   63.6680   32.8690 O   0  0  0  0  0  0  0  0  0  0  0  0
   14.3720   65.8200   32.6490 C   0  0  0  0  0  0  0  0  0  0  0  0
   12.9070   67.0930   31.0400 C   0  0  0  0  0  0  0  0  0  0  0  0
   12.8090   67.8620   29.6900 C   0  0  0  0  0  0  0  0  0  0  0  0
   11.9180   66.9950   28.7790 C   0  0  0  0  0  0  0  0  0  0  0  0
   11.2960   65.9970   29.7390 C   0  0  0  0  0  0  0  0  0  0  0  0
   12.4640   65.6770   30.6240 C   0  0  0  0  0  0  0  0  0  0  0  0
   16.9140   63.7560   30.6010 C   0  0  0  0  0  0  0  0  0  0  0  0
   18.2370   63.6680   31.3470 C   0  0  0  0  0  0  0  0  0  0  0  0
   19.0830   64.7300   31.5620 N   0  0  0  0  0  0  0  0  0  0  0  0
   20.0990   64.2280   32.2310 C   0  0  0  0  0  0  0  0  0  0  0  0
   21.2510   64.8180   32.7230 N   0  0  0  0  0  0  0  0  0  0  0  0
   22.1200   64.0910   33.3210 C   0  0  0  0  0  0  0  0  0  0  0  0
   23.3960   64.7390   33.8500 C   0  0  0  0  0  0  0  0  0  0  0  0
   21.9570   62.6070   33.5460 C   0  0  0  0  0  0  0  0  0  0  0  0
   20.8450   62.0620   33.0670 C   0  0  0  0  0  0  0  0  0  0  0  0
   20.5400   60.5840   33.2040 C   0  0  0  0  0  0  0  0  0  0  0  0
   19.8790   62.8650   32.3950 N   0  0  0  0  0  0  0  0  0  0  0  0
   18.7270   62.4980   31.8410 N   0  0  0  0  0  0  0  0  0  0  0  0
   14.5700   68.3850   32.5570 C   0  0  0  0  0  0  0  0  0  0  0  0
   15.6880   68.4780   33.6200 C   0  0  0  0  0  0  0  0  0  0  0  0
   19.1460   68.8110   32.0840 C   0  0  0  0  0  0  0  0  0  0  0  0
   19.4300   70.1140   32.2990 N   0  0  0  0  0  0  0  0  0  0  0  0
   18.5620   70.8660   32.9990 C   0  0  0  0  0  0  0  0  0  0  0  0
   17.3330   70.3670   33.4670 C   0  0  0  0  0  0  0  0  0  0  0  0
   17.0260   69.0360   33.2150 C   0  0  0  0  0  0  0  0  0  0  0  0
   17.9430   68.2500   32.5310 C   0  0  0  0  0  0  0  0  0  0  0  0
   21.5730   68.2310   31.7700 C   0  0  0  0  0  0  0  0  0  0  0  0
   20.1370   67.9670   31.3130 C   0  0  0  0  0  0  0  0  0  0  0  0
   18.8980   72.3150   33.2520 C   0  0  0  0  0  0  0  0  0  0  0  0
   18.8890   73.0990   31.9470 C   0  0  0  0  0  0  0  0  0  0  0  0
  1 26  1  1  0  0  0
  1  8  1  0  0  0  0
  2  1  1  0  0  0  0
  3  2  1  0  0  0  0
  3  5  1  0  0  0  0
  4  3  2  0  0  0  0
  5 14  1  6  0  0  0
  5  6  1  0  0  0  0
  6  8  1  0  0  0  0
  6  7  2  0  0  0  0
  9  1  1  0  0  0  0
 10  9  1  0  0  0  0
 11 10  1  0  0  0  0
 11 12  1  0  0  0  0
 12 13  1  0  0  0  0
 13  9  1  0  0  0  0
 14 15  1  0  0  0  0
 15 16  2  0  0  0  0
 15 25  2  0  0  0  0
 16 17  2  0  0  0  0
 17 24  1  0  0  0  0
 17 18  2  0  0  0  0
 18 19  2  0  0  0  0
 19 21  1  0  0  0  0
 19 20  1  0  0  0  0
 22 23  1  0  0  0  0
 22 21  2  0  0  0  0
 24 22  1  0  0  0  0
 25 24  1  0  0  0  0
 26 27  1  0  0  0  0
 28 29  2  0  0  0  0
 28 33  1  0  0  0  0
 29 30  2  0  0  0  0
 30 36  1  0  0  0  0
 30 31  1  0  0  0  0
 32 31  2  0  0  0  0
 32 27  1  0  0  0  0
 33 32  1  0  0  0  0
 35 34  1  0  0  0  0
 35 28  1  0  0  0  0
 37 36  1  0  0  0  0
M  END
>  <minimizedAffinity>
-8.73801327

$$$$
