
 OpenBabel12271915203D

 37 41  0  0  1  0  0  0  0  0999 V2000
   21.3980   64.1870   32.7310 C   0  0  2  0  0  0  0  0  0  0  0  0
   21.7010   63.1840   31.7560 O   0  0  0  0  0  0  0  0  0  0  0  0
   21.0630   62.0150   31.7950 C   0  0  0  0  0  0  0  0  0  0  0  0
   20.9590   61.3780   30.7550 O   0  0  0  0  0  0  0  0  0  0  0  0
   20.5200   61.5750   33.0850 C   0  0  1  0  0  0  0  0  0  0  0  0
   20.6390   62.2940   34.2660 C   0  0  0  0  0  0  0  0  0  0  0  0
   20.2230   62.1080   35.3970 O   0  0  0  0  0  0  0  0  0  0  0  0
   21.4230   63.6220   34.1470 C   0  0  0  0  0  0  0  0  0  0  0  0
   19.9940   64.6990   32.4050 C   0  0  0  0  0  0  0  0  0  0  0  0
   19.3440   64.0720   31.1780 C   0  0  0  0  0  0  0  0  0  0  0  0
   18.0790   64.8990   31.0410 C   0  0  0  0  0  0  0  0  0  0  0  0
   18.4120   66.2790   31.6110 C   0  0  0  0  0  0  0  0  0  0  0  0
   19.8330   66.1870   32.1410 C   0  0  0  0  0  0  0  0  0  0  0  0
   19.7840   60.2220   32.9940 C   0  0  0  0  0  0  0  0  0  0  0  0
   18.2590   60.2890   32.9000 C   0  0  0  0  0  0  0  0  0  0  0  0
   17.4300   59.1930   32.7540 N   0  0  0  0  0  0  0  0  0  0  0  0
   16.2080   59.7300   32.7280 C   0  0  0  0  0  0  0  0  0  0  0  0
   14.9560   59.1390   32.5750 N   0  0  0  0  0  0  0  0  0  0  0  0
   13.8740   59.8590   32.5320 C   0  0  0  0  0  0  0  0  0  0  0  0
   12.5000   59.2240   32.3630 C   0  0  0  0  0  0  0  0  0  0  0  0
   13.9240   61.3360   32.6070 C   0  0  0  0  0  0  0  0  0  0  0  0
   15.1230   61.8870   32.7480 C   0  0  0  0  0  0  0  0  0  0  0  0
   15.2930   63.3750   32.8100 C   0  0  0  0  0  0  0  0  0  0  0  0
   16.2990   61.0850   32.8210 N   0  0  0  0  0  0  0  0  0  0  0  0
   17.5950   61.4620   32.8780 N   0  0  0  0  0  0  0  0  0  0  0  0
   22.4010   65.3550   32.5030 C   0  0  0  0  0  0  0  0  0  0  0  0
   23.4830   65.3310   33.5740 C   0  0  0  0  0  0  0  0  0  0  0  0
   26.1600   63.1090   32.2010 C   0  0  0  0  0  0  0  0  0  0  0  0
   26.1590   62.0530   33.0600 N   0  0  0  0  0  0  0  0  0  0  0  0
   25.2810   62.0790   34.0780 C   0  0  0  0  0  0  0  0  0  0  0  0
   24.4120   63.1280   34.2790 C   0  0  0  0  0  0  0  0  0  0  0  0
   24.4190   64.2020   33.3890 C   0  0  0  0  0  0  0  0  0  0  0  0
   25.3210   64.1930   32.3360 C   0  0  0  0  0  0  0  0  0  0  0  0
   27.9830   61.8440   31.0360 C   0  0  0  0  0  0  0  0  0  0  0  0
   27.1250   63.0930   31.0520 C   0  0  0  0  0  0  0  0  0  0  0  0
   25.2670   60.9080   35.0300 C   0  0  0  0  0  0  0  0  0  0  0  0
   23.9000   60.7080   35.6510 C   0  0  0  0  0  0  0  0  0  0  0  0
  1 26  1  6  0  0  0
  1  8  1  0  0  0  0
  2  3  1  0  0  0  0
  2  1  1  0  0  0  0
  3  5  1  0  0  0  0
  4  3  2  0  0  0  0
  5 14  1  6  0  0  0
  5  6  1  0  0  0  0
  6  7  2  0  0  0  0
  8  6  1  0  0  0  0
  9  1  1  0  0  0  0
 10  9  1  0  0  0  0
 11 10  1  0  0  0  0
 11 12  1  0  0  0  0
 12 13  1  0  0  0  0
 13  9  1  0  0  0  0
 15 14  1  0  0  0  0
 16 15  2  0  0  0  0
 17 16  2  0  0  0  0
 17 24  1  0  0  0  0
 18 17  2  0  0  0  0
 19 18  2  0  0  0  0
 19 21  1  0  0  0  0
 20 19  1  0  0  0  0
 21 22  2  0  0  0  0
 22 23  1  0  0  0  0
 22 24  1  0  0  0  0
 24 25  1  0  0  0  0
 25 15  2  0  0  0  0
 26 27  1  0  0  0  0
 28 33  1  0  0  0  0
 28 29  2  0  0  0  0
 29 30  2  0  0  0  0
 30 31  1  0  0  0  0
 30 36  1  0  0  0  0
 32 27  1  0  0  0  0
 32 31  2  0  0  0  0
 33 32  1  0  0  0  0
 34 35  1  0  0  0  0
 35 28  1  0  0  0  0
 36 37  1  0  0  0  0
M  END
>  <minimizedAffinity>
-10.5605497

$$$$

 OpenBabel12271915203D

 37 41  0  0  1  0  0  0  0  0999 V2000
   21.8050   64.9170   32.3900 C   0  0  2  0  0  0  0  0  0  0  0  0
   21.8600   63.7880   31.5130 O   0  0  0  0  0  0  0  0  0  0  0  0
   20.8650   62.9030   31.5170 C   0  0  0  0  0  0  0  0  0  0  0  0
   20.6720   62.2460   30.5020 O   0  0  0  0  0  0  0  0  0  0  0  0
   20.0600   62.7840   32.7380 C   0  0  1  0  0  0  0  0  0  0  0  0
   20.2790   63.5260   33.8910 C   0  0  0  0  0  0  0  0  0  0  0  0
   19.6980   63.5890   34.9600 O   0  0  0  0  0  0  0  0  0  0  0  0
   21.4740   64.5050   33.8200 C   0  0  0  0  0  0  0  0  0  0  0  0
   20.7040   65.8330   31.8500 C   0  0  0  0  0  0  0  0  0  0  0  0
   21.1470   67.2540   31.5240 C   0  0  0  0  0  0  0  0  0  0  0  0
   19.8240   67.9210   31.1920 C   0  0  0  0  0  0  0  0  0  0  0  0
   18.7620   67.1860   32.0110 C   0  0  0  0  0  0  0  0  0  0  0  0
   19.4850   66.0590   32.7290 C   0  0  0  0  0  0  0  0  0  0  0  0
   18.9260   61.7460   32.6080 C   0  0  0  0  0  0  0  0  0  0  0  0
   17.5010   62.2850   32.7420 C   0  0  0  0  0  0  0  0  0  0  0  0
   16.4670   61.6300   33.3860 N   0  0  0  0  0  0  0  0  0  0  0  0
   15.4390   62.4720   33.2580 C   0  0  0  0  0  0  0  0  0  0  0  0
   14.1150   62.3630   33.6760 N   0  0  0  0  0  0  0  0  0  0  0  0
   13.2470   63.2930   33.4060 C   0  0  0  0  0  0  0  0  0  0  0  0
   11.7960   63.1840   33.8570 C   0  0  0  0  0  0  0  0  0  0  0  0
   13.6150   64.4890   32.6160 C   0  0  0  0  0  0  0  0  0  0  0  0
   14.8780   64.5780   32.2190 C   0  0  0  0  0  0  0  0  0  0  0  0
   15.3540   65.7350   31.3930 C   0  0  0  0  0  0  0  0  0  0  0  0
   15.8260   63.5650   32.5440 N   0  0  0  0  0  0  0  0  0  0  0  0
   17.1160   63.4400   32.1640 N   0  0  0  0  0  0  0  0  0  0  0  0
   23.1630   65.6640   32.2500 C   0  0  0  0  0  0  0  0  0  0  0  0
   24.0380   65.3900   33.4650 C   0  0  0  0  0  0  0  0  0  0  0  0
   26.4920   62.9160   32.1060 C   0  0  0  0  0  0  0  0  0  0  0  0
   26.3960   61.8730   32.9760 N   0  0  0  0  0  0  0  0  0  0  0  0
   25.5280   61.9900   33.9960 C   0  0  0  0  0  0  0  0  0  0  0  0
   24.7610   63.1170   34.1890 C   0  0  0  0  0  0  0  0  0  0  0  0
   24.8640   64.1770   33.2880 C   0  0  0  0  0  0  0  0  0  0  0  0
   25.7580   64.0740   32.2330 C   0  0  0  0  0  0  0  0  0  0  0  0
   28.3370   61.5770   31.0640 C   0  0  0  0  0  0  0  0  0  0  0  0
   27.4470   62.7980   30.9540 C   0  0  0  0  0  0  0  0  0  0  0  0
   25.4100   60.8350   34.9590 C   0  0  0  0  0  0  0  0  0  0  0  0
   24.0260   60.7570   35.5720 C   0  0  0  0  0  0  0  0  0  0  0  0
  1 26  1  6  0  0  0
  1  8  1  0  0  0  0
  2  3  1  0  0  0  0
  2  1  1  0  0  0  0
  3  5  1  0  0  0  0
  4  3  2  0  0  0  0
  5 14  1  6  0  0  0
  5  6  1  0  0  0  0
  6  7  2  0  0  0  0
  8  6  1  0  0  0  0
  9  1  1  0  0  0  0
  9 13  1  0  0  0  0
 10  9  1  0  0  0  0
 11 10  1  0  0  0  0
 11 12  1  0  0  0  0
 12 13  1  0  0  0  0
 14 15  1  0  0  0  0
 15 16  2  0  0  0  0
 17 16  2  0  0  0  0
 17 18  2  0  0  0  0
 19 18  2  0  0  0  0
 19 20  1  0  0  0  0
 21 19  1  0  0  0  0
 22 24  1  0  0  0  0
 22 21  2  0  0  0  0
 23 22  1  0  0  0  0
 24 17  1  0  0  0  0
 25 24  1  0  0  0  0
 25 15  2  0  0  0  0
 26 27  1  0  0  0  0
 28 33  1  0  0  0  0
 28 29  2  0  0  0  0
 29 30  2  0  0  0  0
 30 31  1  0  0  0  0
 30 36  1  0  0  0  0
 32 27  1  0  0  0  0
 32 31  2  0  0  0  0
 33 32  1  0  0  0  0
 35 34  1  0  0  0  0
 35 28  1  0  0  0  0
 36 37  1  0  0  0  0
M  END
>  <minimizedAffinity>
-10.4438381

$$$$

 OpenBabel12271915203D

 37 41  0  0  1  0  0  0  0  0999 V2000
   21.3140   64.3820   32.9180 C   0  0  2  0  0  0  0  0  0  0  0  0
   21.5180   63.4940   31.8150 O   0  0  0  0  0  0  0  0  0  0  0  0
   20.7020   62.4550   31.6470 C   0  0  0  0  0  0  0  0  0  0  0  0
   20.5680   62.0020   30.5170 O   0  0  0  0  0  0  0  0  0  0  0  0
   20.0090   61.9310   32.8290 C   0  0  1  0  0  0  0  0  0  0  0  0
   20.1610   62.4410   34.1110 C   0  0  0  0  0  0  0  0  0  0  0  0
   19.6450   62.1660   35.1810 O   0  0  0  0  0  0  0  0  0  0  0  0
   21.1530   63.6220   34.2310 C   0  0  0  0  0  0  0  0  0  0  0  0
   20.0350   65.1640   32.6160 C   0  0  0  0  0  0  0  0  0  0  0  0
   19.2180   64.6400   31.4400 C   0  0  0  0  0  0  0  0  0  0  0  0
   18.1480   65.7080   31.3060 C   0  0  0  0  0  0  0  0  0  0  0  0
   18.7840   67.0080   31.8010 C   0  0  0  0  0  0  0  0  0  0  0  0
   20.1750   66.6410   32.2880 C   0  0  0  0  0  0  0  0  0  0  0  0
   19.0760   60.7480   32.5000 C   0  0  0  0  0  0  0  0  0  0  0  0
   17.5810   60.9860   32.7220 C   0  0  0  0  0  0  0  0  0  0  0  0
   17.0170   62.2060   33.0460 N   0  0  0  0  0  0  0  0  0  0  0  0
   15.7130   61.9330   33.1270 C   0  0  0  0  0  0  0  0  0  0  0  0
   14.6300   62.7480   33.4460 N   0  0  0  0  0  0  0  0  0  0  0  0
   13.4230   62.2660   33.5140 C   0  0  0  0  0  0  0  0  0  0  0  0
   12.2320   63.1470   33.8640 C   0  0  0  0  0  0  0  0  0  0  0  0
   13.1510   60.8290   33.2900 C   0  0  0  0  0  0  0  0  0  0  0  0
   14.1920   60.0630   32.9910 C   0  0  0  0  0  0  0  0  0  0  0  0
   14.0340   58.5880   32.7690 C   0  0  0  0  0  0  0  0  0  0  0  0
   15.5050   60.6080   32.8940 N   0  0  0  0  0  0  0  0  0  0  0  0
   16.6840   59.9810   32.6870 N   0  0  0  0  0  0  0  0  0  0  0  0
   22.5030   65.3850   32.9160 C   0  0  0  0  0  0  0  0  0  0  0  0
   23.4870   65.0280   31.8110 C   0  0  0  0  0  0  0  0  0  0  0  0
   25.3350   62.5110   33.8690 C   0  0  0  0  0  0  0  0  0  0  0  0
   26.4060   62.1970   33.0890 N   0  0  0  0  0  0  0  0  0  0  0  0
   26.5120   62.8150   31.8990 C   0  0  0  0  0  0  0  0  0  0  0  0
   25.5810   63.7250   31.4520 C   0  0  0  0  0  0  0  0  0  0  0  0
   24.4910   64.0420   32.2620 C   0  0  0  0  0  0  0  0  0  0  0  0
   24.3630   63.4100   33.4900 C   0  0  0  0  0  0  0  0  0  0  0  0
   23.9020   61.0830   35.3480 C   0  0  0  0  0  0  0  0  0  0  0  0
   25.2060   61.8400   35.2050 C   0  0  0  0  0  0  0  0  0  0  0  0
   27.7010   62.4790   31.0330 C   0  0  0  0  0  0  0  0  0  0  0  0
   28.3430   61.1710   31.4470 C   0  0  0  0  0  0  0  0  0  0  0  0
  1 26  1  1  0  0  0
  1  8  1  0  0  0  0
  2  1  1  0  0  0  0
  3  2  1  0  0  0  0
  3  5  1  0  0  0  0
  4  3  2  0  0  0  0
  5 14  1  6  0  0  0
  5  6  1  0  0  0  0
  6  8  1  0  0  0  0
  6  7  2  0  0  0  0
  9  1  1  0  0  0  0
 10  9  1  0  0  0  0
 11 10  1  0  0  0  0
 11 12  1  0  0  0  0
 12 13  1  0  0  0  0
 13  9  1  0  0  0  0
 14 15  1  0  0  0  0
 15 16  2  0  0  0  0
 16 17  2  0  0  0  0
 17 18  2  0  0  0  0
 18 19  2  0  0  0  0
 19 20  1  0  0  0  0
 21 19  1  0  0  0  0
 22 21  2  0  0  0  0
 23 22  1  0  0  0  0
 24 22  1  0  0  0  0
 24 17  1  0  0  0  0
 25 15  2  0  0  0  0
 25 24  1  0  0  0  0
 27 32  1  0  0  0  0
 27 26  1  0  0  0  0
 28 35  1  0  0  0  0
 29 28  2  0  0  0  0
 30 29  2  0  0  0  0
 31 30  1  0  0  0  0
 31 32  2  0  0  0  0
 32 33  1  0  0  0  0
 33 28  1  0  0  0  0
 35 34  1  0  0  0  0
 36 37  1  0  0  0  0
 36 30  1  0  0  0  0
M  END
>  <minimizedAffinity>
-9.78908443

$$$$

 OpenBabel12271915203D

 37 41  0  0  1  0  0  0  0  0999 V2000
   19.5450   63.4110   33.2560 C   0  0  2  0  0  0  0  0  0  0  0  0
   20.3220   62.3340   32.7250 O   0  0  0  0  0  0  0  0  0  0  0  0
   19.7100   61.3080   32.1360 C   0  0  0  0  0  0  0  0  0  0  0  0
   20.3330   60.6650   31.3010 O   0  0  0  0  0  0  0  0  0  0  0  0
   18.3230   61.0260   32.5230 C   0  0  1  0  0  0  0  0  0  0  0  0
   17.6160   61.7520   33.4710 C   0  0  0  0  0  0  0  0  0  0  0  0
   16.4690   61.6900   33.8790 O   0  0  0  0  0  0  0  0  0  0  0  0
   18.4060   62.9040   34.1350 C   0  0  0  0  0  0  0  0  0  0  0  0
   18.9710   64.1660   32.0570 C   0  0  0  0  0  0  0  0  0  0  0  0
   19.4170   65.6190   31.9330 C   0  0  0  0  0  0  0  0  0  0  0  0
   18.5590   66.1080   30.7800 C   0  0  0  0  0  0  0  0  0  0  0  0
   17.2740   65.2790   30.8270 C   0  0  0  0  0  0  0  0  0  0  0  0
   17.4590   64.2740   31.9510 C   0  0  0  0  0  0  0  0  0  0  0  0
   17.7180   59.8330   31.7540 C   0  0  0  0  0  0  0  0  0  0  0  0
   17.4680   58.5640   32.5690 C   0  0  0  0  0  0  0  0  0  0  0  0
   18.4500   57.6770   32.9700 N   0  0  0  0  0  0  0  0  0  0  0  0
   17.7720   56.7490   33.6490 C   0  0  0  0  0  0  0  0  0  0  0  0
   18.2030   55.5830   34.2760 N   0  0  0  0  0  0  0  0  0  0  0  0
   17.3600   54.7790   34.8530 C   0  0  0  0  0  0  0  0  0  0  0  0
   17.8190   53.5010   35.5410 C   0  0  0  0  0  0  0  0  0  0  0  0
   15.9040   55.0460   34.8400 C   0  0  0  0  0  0  0  0  0  0  0  0
   15.5060   56.1580   34.2350 C   0  0  0  0  0  0  0  0  0  0  0  0
   14.0530   56.5150   34.1410 C   0  0  0  0  0  0  0  0  0  0  0  0
   16.4430   57.0440   33.6300 N   0  0  0  0  0  0  0  0  0  0  0  0
   16.2250   58.1630   32.9050 N   0  0  0  0  0  0  0  0  0  0  0  0
   20.5330   64.3600   33.9950 C   0  0  0  0  0  0  0  0  0  0  0  0
   21.7810   63.5940   34.4110 C   0  0  0  0  0  0  0  0  0  0  0  0
   25.1470   63.5850   32.7810 C   0  0  0  0  0  0  0  0  0  0  0  0
   25.1790   64.7790   32.1280 N   0  0  0  0  0  0  0  0  0  0  0  0
   24.1000   65.5750   32.2310 C   0  0  0  0  0  0  0  0  0  0  0  0
   22.9830   65.2170   32.9500 C   0  0  0  0  0  0  0  0  0  0  0  0
   22.9630   63.9920   33.6180 C   0  0  0  0  0  0  0  0  0  0  0  0
   24.0660   63.1580   33.5200 C   0  0  0  0  0  0  0  0  0  0  0  0
   27.0560   62.8090   31.3540 C   0  0  0  0  0  0  0  0  0  0  0  0
   26.3470   62.6890   32.6880 C   0  0  0  0  0  0  0  0  0  0  0  0
   24.1320   66.9040   31.5170 C   0  0  0  0  0  0  0  0  0  0  0  0
   22.9720   67.7870   31.9290 C   0  0  0  0  0  0  0  0  0  0  0  0
  1 26  1  1  0  0  0
  1  8  1  0  0  0  0
  2  1  1  0  0  0  0
  3  5  1  0  0  0  0
  3  2  1  0  0  0  0
  4  3  2  0  0  0  0
  5 14  1  6  0  0  0
  5  6  1  0  0  0  0
  6  7  2  0  0  0  0
  6  8  1  0  0  0  0
  9  1  1  0  0  0  0
 10  9  1  0  0  0  0
 11 12  1  0  0  0  0
 11 10  1  0  0  0  0
 12 13  1  0  0  0  0
 13  9  1  0  0  0  0
 14 15  1  0  0  0  0
 15 25  2  0  0  0  0
 15 16  2  0  0  0  0
 16 17  2  0  0  0  0
 17 18  2  0  0  0  0
 18 19  2  0  0  0  0
 19 20  1  0  0  0  0
 21 19  1  0  0  0  0
 22 21  2  0  0  0  0
 23 22  1  0  0  0  0
 24 17  1  0  0  0  0
 24 22  1  0  0  0  0
 25 24  1  0  0  0  0
 26 27  1  0  0  0  0
 28 33  1  0  0  0  0
 29 30  2  0  0  0  0
 29 28  2  0  0  0  0
 30 31  1  0  0  0  0
 31 32  2  0  0  0  0
 32 27  1  0  0  0  0
 33 32  1  0  0  0  0
 34 35  1  0  0  0  0
 35 28  1  0  0  0  0
 36 37  1  0  0  0  0
 36 30  1  0  0  0  0
M  END
>  <minimizedAffinity>
-9.53032207

$$$$

 OpenBabel12271915203D

 37 41  0  0  1  0  0  0  0  0999 V2000
   16.7180   62.3870   32.2920 C   0  0  2  0  0  0  0  0  0  0  0  0
   17.5800   61.8820   33.3160 O   0  0  0  0  0  0  0  0  0  0  0  0
   18.5510   62.6550   33.7990 C   0  0  0  0  0  0  0  0  0  0  0  0
   18.9550   62.4350   34.9330 O   0  0  0  0  0  0  0  0  0  0  0  0
   19.0640   63.7270   32.9370 C   0  0  1  0  0  0  0  0  0  0  0  0
   18.6100   63.9750   31.6490 C   0  0  0  0  0  0  0  0  0  0  0  0
   18.8830   64.8290   30.8230 O   0  0  0  0  0  0  0  0  0  0  0  0
   17.5080   63.0130   31.1480 C   0  0  0  0  0  0  0  0  0  0  0  0
   15.8360   63.4490   32.9510 C   0  0  0  0  0  0  0  0  0  0  0  0
   14.5430   62.9270   33.5660 C   0  0  0  0  0  0  0  0  0  0  0  0
   13.8480   64.2170   33.9640 C   0  0  0  0  0  0  0  0  0  0  0  0
   14.3250   65.2780   32.9730 C   0  0  0  0  0  0  0  0  0  0  0  0
   15.3500   64.5970   32.0820 C   0  0  0  0  0  0  0  0  0  0  0  0
   20.1660   64.5650   33.6170 C   0  0  0  0  0  0  0  0  0  0  0  0
   21.6020   64.0800   33.4180 C   0  0  0  0  0  0  0  0  0  0  0  0
   22.4340   64.4780   32.3880 N   0  0  0  0  0  0  0  0  0  0  0  0
   23.5660   63.8130   32.6290 C   0  0  0  0  0  0  0  0  0  0  0  0
   24.7680   63.7760   31.9270 N   0  0  0  0  0  0  0  0  0  0  0  0
   25.7490   63.0150   32.3130 C   0  0  0  0  0  0  0  0  0  0  0  0
   27.0670   62.9660   31.5520 C   0  0  0  0  0  0  0  0  0  0  0  0
   25.6230   62.1290   33.4920 C   0  0  0  0  0  0  0  0  0  0  0  0
   24.4710   62.1690   34.1490 C   0  0  0  0  0  0  0  0  0  0  0  0
   24.2260   61.2960   35.3420 C   0  0  0  0  0  0  0  0  0  0  0  0
   23.4140   63.0280   33.7310 N   0  0  0  0  0  0  0  0  0  0  0  0
   22.1570   63.1440   34.2150 N   0  0  0  0  0  0  0  0  0  0  0  0
   15.8020   61.2080   31.8510 C   0  0  0  0  0  0  0  0  0  0  0  0
   16.2060   59.9330   32.5780 C   0  0  0  0  0  0  0  0  0  0  0  0
   12.6980   58.7110   33.0190 C   0  0  0  0  0  0  0  0  0  0  0  0
   12.8350   57.6900   33.9090 N   0  0  0  0  0  0  0  0  0  0  0  0
   14.0720   57.4150   34.3570 C   0  0  0  0  0  0  0  0  0  0  0  0
   15.1830   58.1120   33.9380 C   0  0  0  0  0  0  0  0  0  0  0  0
   15.0300   59.1590   33.0290 C   0  0  0  0  0  0  0  0  0  0  0  0
   13.7610   59.4530   32.5540 C   0  0  0  0  0  0  0  0  0  0  0  0
   11.1390   58.6790   31.0570 C   0  0  0  0  0  0  0  0  0  0  0  0
   11.3230   59.0400   32.5170 C   0  0  0  0  0  0  0  0  0  0  0  0
   14.2300   56.2910   35.3510 C   0  0  0  0  0  0  0  0  0  0  0  0
   14.0730   56.7780   36.7770 C   0  0  0  0  0  0  0  0  0  0  0  0
  1 26  1  6  0  0  0
  1  9  1  0  0  0  0
  1  2  1  0  0  0  0
  2  3  1  0  0  0  0
  3  4  2  0  0  0  0
  5 14  1  1  0  0  0
  5  3  1  0  0  0  0
  6  5  1  0  0  0  0
  7  6  2  0  0  0  0
  8  6  1  0  0  0  0
  8  1  1  0  0  0  0
  9 10  1  0  0  0  0
 10 11  1  0  0  0  0
 12 11  1  0  0  0  0
 13  9  1  0  0  0  0
 13 12  1  0  0  0  0
 15 14  1  0  0  0  0
 15 25  2  0  0  0  0
 16 17  2  0  0  0  0
 16 15  2  0  0  0  0
 17 24  1  0  0  0  0
 18 19  2  0  0  0  0
 18 17  2  0  0  0  0
 19 21  1  0  0  0  0
 20 19  1  0  0  0  0
 21 22  2  0  0  0  0
 22 23  1  0  0  0  0
 24 22  1  0  0  0  0
 24 25  1  0  0  0  0
 26 27  1  0  0  0  0
 27 32  1  0  0  0  0
 28 29  2  0  0  0  0
 29 30  2  0  0  0  0
 30 36  1  0  0  0  0
 31 30  1  0  0  0  0
 32 31  2  0  0  0  0
 33 28  1  0  0  0  0
 33 32  1  0  0  0  0
 34 35  1  0  0  0  0
 35 28  1  0  0  0  0
 36 37  1  0  0  0  0
M  END
>  <minimizedAffinity>
-9.28272629

$$$$

 OpenBabel12271915203D

 37 41  0  0  1  0  0  0  0  0999 V2000
   16.7360   62.3010   32.3260 C   0  0  2  0  0  0  0  0  0  0  0  0
   17.6280   61.8320   33.3410 O   0  0  0  0  0  0  0  0  0  0  0  0
   18.5910   62.6340   33.7930 C   0  0  0  0  0  0  0  0  0  0  0  0
   19.0210   62.4410   34.9220 O   0  0  0  0  0  0  0  0  0  0  0  0
   19.0640   63.7020   32.9050 C   0  0  1  0  0  0  0  0  0  0  0  0
   18.5800   63.9200   31.6220 C   0  0  0  0  0  0  0  0  0  0  0  0
   18.8180   64.7660   30.7780 O   0  0  0  0  0  0  0  0  0  0  0  0
   17.4900   62.9260   31.1570 C   0  0  0  0  0  0  0  0  0  0  0  0
   15.8440   63.3540   32.9850 C   0  0  0  0  0  0  0  0  0  0  0  0
   14.5520   62.8200   33.5930 C   0  0  0  0  0  0  0  0  0  0  0  0
   13.8450   64.1020   33.9930 C   0  0  0  0  0  0  0  0  0  0  0  0
   14.3190   65.1720   33.0080 C   0  0  0  0  0  0  0  0  0  0  0  0
   15.3520   64.5020   32.1180 C   0  0  0  0  0  0  0  0  0  0  0  0
   20.1590   64.5760   33.5510 C   0  0  0  0  0  0  0  0  0  0  0  0
   21.5990   64.0950   33.3670 C   0  0  0  0  0  0  0  0  0  0  0  0
   22.4310   64.4730   32.3300 N   0  0  0  0  0  0  0  0  0  0  0  0
   23.5670   63.8230   32.5900 C   0  0  0  0  0  0  0  0  0  0  0  0
   24.7710   63.7770   31.8910 N   0  0  0  0  0  0  0  0  0  0  0  0
   25.7570   63.0330   32.2980 C   0  0  0  0  0  0  0  0  0  0  0  0
   27.0770   62.9740   31.5420 C   0  0  0  0  0  0  0  0  0  0  0  0
   25.6340   62.1760   33.4990 C   0  0  0  0  0  0  0  0  0  0  0  0
   24.4800   62.2240   34.1520 C   0  0  0  0  0  0  0  0  0  0  0  0
   24.2380   61.3790   35.3670 C   0  0  0  0  0  0  0  0  0  0  0  0
   23.4170   63.0650   33.7110 N   0  0  0  0  0  0  0  0  0  0  0  0
   22.1590   63.1840   34.1880 N   0  0  0  0  0  0  0  0  0  0  0  0
   15.8380   61.0960   31.9210 C   0  0  0  0  0  0  0  0  0  0  0  0
   16.3540   59.8190   32.5700 C   0  0  0  0  0  0  0  0  0  0  0  0
   14.5040   56.6930   33.4600 C   0  0  0  0  0  0  0  0  0  0  0  0
   13.2030   57.0290   33.2430 N   0  0  0  0  0  0  0  0  0  0  0  0
   12.9460   58.2740   32.8050 C   0  0  0  0  0  0  0  0  0  0  0  0
   13.9390   59.2020   32.5900 C   0  0  0  0  0  0  0  0  0  0  0  0
   15.2690   58.8450   32.8110 C   0  0  0  0  0  0  0  0  0  0  0  0
   15.5510   57.5660   33.2670 C   0  0  0  0  0  0  0  0  0  0  0  0
   13.6050   54.6240   34.5520 C   0  0  0  0  0  0  0  0  0  0  0  0
   14.8110   55.3040   33.9370 C   0  0  0  0  0  0  0  0  0  0  0  0
   11.5070   58.6520   32.5540 C   0  0  0  0  0  0  0  0  0  0  0  0
   11.1840   58.6710   31.0740 C   0  0  0  0  0  0  0  0  0  0  0  0
  1 26  1  6  0  0  0
  1  9  1  0  0  0  0
  1  2  1  0  0  0  0
  2  3  1  0  0  0  0
  3  4  2  0  0  0  0
  5 14  1  1  0  0  0
  5  3  1  0  0  0  0
  6  5  1  0  0  0  0
  7  6  2  0  0  0  0
  8  6  1  0  0  0  0
  8  1  1  0  0  0  0
  9 10  1  0  0  0  0
 10 11  1  0  0  0  0
 12 11  1  0  0  0  0
 13  9  1  0  0  0  0
 13 12  1  0  0  0  0
 15 14  1  0  0  0  0
 15 25  2  0  0  0  0
 16 17  2  0  0  0  0
 16 15  2  0  0  0  0
 17 24  1  0  0  0  0
 18 19  2  0  0  0  0
 18 17  2  0  0  0  0
 19 21  1  0  0  0  0
 20 19  1  0  0  0  0
 21 22  2  0  0  0  0
 22 23  1  0  0  0  0
 24 22  1  0  0  0  0
 24 25  1  0  0  0  0
 26 27  1  0  0  0  0
 27 32  1  0  0  0  0
 28 35  1  0  0  0  0
 29 28  2  0  0  0  0
 30 29  2  0  0  0  0
 31 30  1  0  0  0  0
 31 32  2  0  0  0  0
 32 33  1  0  0  0  0
 33 28  1  0  0  0  0
 35 34  1  0  0  0  0
 36 30  1  0  0  0  0
 37 36  1  0  0  0  0
M  END
>  <minimizedAffinity>
-9.23278046

$$$$

 OpenBabel12271915203D

 37 41  0  0  1  0  0  0  0  0999 V2000
   17.6880   62.1200   32.7950 C   0  0  2  0  0  0  0  0  0  0  0  0
   18.1870   62.2760   34.1270 O   0  0  0  0  0  0  0  0  0  0  0  0
   19.2450   63.0570   34.3460 C   0  0  0  0  0  0  0  0  0  0  0  0
   19.3740   63.5570   35.4550 O   0  0  0  0  0  0  0  0  0  0  0  0
   20.1780   63.2710   33.2340 C   0  0  1  0  0  0  0  0  0  0  0  0
   20.0350   62.7020   31.9760 C   0  0  0  0  0  0  0  0  0  0  0  0
   20.6740   62.8010   30.9420 O   0  0  0  0  0  0  0  0  0  0  0  0
   18.8030   61.7820   31.8110 C   0  0  0  0  0  0  0  0  0  0  0  0
   17.0500   63.4560   32.4110 C   0  0  0  0  0  0  0  0  0  0  0  0
   15.5520   63.5570   32.6740 C   0  0  0  0  0  0  0  0  0  0  0  0
   15.2170   64.8950   32.0400 C   0  0  0  0  0  0  0  0  0  0  0  0
   16.2190   65.0870   30.9010 C   0  0  0  0  0  0  0  0  0  0  0  0
   17.1620   63.8970   30.9600 C   0  0  0  0  0  0  0  0  0  0  0  0
   21.3440   64.2100   33.6040 C   0  0  0  0  0  0  0  0  0  0  0  0
   22.7490   63.7000   33.2830 C   0  0  0  0  0  0  0  0  0  0  0  0
   23.4860   64.0650   32.1720 N   0  0  0  0  0  0  0  0  0  0  0  0
   24.6270   63.3880   32.3200 C   0  0  0  0  0  0  0  0  0  0  0  0
   25.7580   63.3200   31.5090 N   0  0  0  0  0  0  0  0  0  0  0  0
   26.7610   62.5520   31.8180 C   0  0  0  0  0  0  0  0  0  0  0  0
   28.0010   62.4690   30.9390 C   0  0  0  0  0  0  0  0  0  0  0  0
   26.7340   61.6920   33.0220 C   0  0  0  0  0  0  0  0  0  0  0  0
   25.6490   61.7620   33.7830 C   0  0  0  0  0  0  0  0  0  0  0  0
   25.5050   60.9160   35.0120 C   0  0  0  0  0  0  0  0  0  0  0  0
   24.5680   62.6280   33.4470 N   0  0  0  0  0  0  0  0  0  0  0  0
   23.3640   62.7720   34.0430 N   0  0  0  0  0  0  0  0  0  0  0  0
   16.5610   61.0490   32.8590 C   0  0  0  0  0  0  0  0  0  0  0  0
   16.8870   59.8900   31.9270 C   0  0  0  0  0  0  0  0  0  0  0  0
   18.4400   56.8020   33.3570 C   0  0  0  0  0  0  0  0  0  0  0  0
   17.4190   56.2380   34.0590 N   0  0  0  0  0  0  0  0  0  0  0  0
   16.2340   56.8720   34.0540 C   0  0  0  0  0  0  0  0  0  0  0  0
   16.0330   58.0590   33.3860 C   0  0  0  0  0  0  0  0  0  0  0  0
   17.0850   58.6260   32.6660 C   0  0  0  0  0  0  0  0  0  0  0  0
   18.3150   57.9860   32.6640 C   0  0  0  0  0  0  0  0  0  0  0  0
   19.6580   54.6470   33.7460 C   0  0  0  0  0  0  0  0  0  0  0  0
   19.7670   56.1020   33.3400 C   0  0  0  0  0  0  0  0  0  0  0  0
   15.0960   56.2480   34.8230 C   0  0  0  0  0  0  0  0  0  0  0  0
   13.7690   56.4490   34.1190 C   0  0  0  0  0  0  0  0  0  0  0  0
  1 26  1  6  0  0  0
  1  2  1  0  0  0  0
  2  3  1  0  0  0  0
  3  4  2  0  0  0  0
  5 14  1  6  0  0  0
  5  3  1  0  0  0  0
  6  5  1  0  0  0  0
  7  6  2  0  0  0  0
  8  6  1  0  0  0  0
  8  1  1  0  0  0  0
  9 10  1  0  0  0  0
  9  1  1  0  0  0  0
 11 10  1  0  0  0  0
 12 13  1  0  0  0  0
 12 11  1  0  0  0  0
 13  9  1  0  0  0  0
 15 14  1  0  0  0  0
 15 25  2  0  0  0  0
 16 17  2  0  0  0  0
 16 15  2  0  0  0  0
 17 24  1  0  0  0  0
 18 19  2  0  0  0  0
 18 17  2  0  0  0  0
 19 21  1  0  0  0  0
 20 19  1  0  0  0  0
 21 22  2  0  0  0  0
 22 23  1  0  0  0  0
 24 22  1  0  0  0  0
 24 25  1  0  0  0  0
 27 32  1  0  0  0  0
 27 26  1  0  0  0  0
 28 29  2  0  0  0  0
 30 29  2  0  0  0  0
 30 36  1  0  0  0  0
 31 30  1  0  0  0  0
 32 31  2  0  0  0  0
 33 32  1  0  0  0  0
 33 28  1  0  0  0  0
 35 28  1  0  0  0  0
 35 34  1  0  0  0  0
 37 36  1  0  0  0  0
M  END
>  <minimizedAffinity>
-9.20114994

$$$$

 OpenBabel12271915203D

 37 41  0  0  1  0  0  0  0  0999 V2000
   19.5330   63.4090   31.9200 C   0  0  2  0  0  0  0  0  0  0  0  0
   18.5230   62.7820   31.1250 O   0  0  0  0  0  0  0  0  0  0  0  0
   17.3180   62.5600   31.6470 C   0  0  0  0  0  0  0  0  0  0  0  0
   16.3630   62.4800   30.8850 O   0  0  0  0  0  0  0  0  0  0  0  0
   17.2180   62.4360   33.1060 C   0  0  1  0  0  0  0  0  0  0  0  0
   18.2990   62.5240   33.9710 C   0  0  0  0  0  0  0  0  0  0  0  0
   18.3960   62.4890   35.1860 O   0  0  0  0  0  0  0  0  0  0  0  0
   19.6680   62.7460   33.2870 C   0  0  0  0  0  0  0  0  0  0  0  0
   19.1060   64.8670   32.0950 C   0  0  0  0  0  0  0  0  0  0  0  0
   18.2920   65.4460   30.9430 C   0  0  0  0  0  0  0  0  0  0  0  0
   18.1860   66.9070   31.3430 C   0  0  0  0  0  0  0  0  0  0  0  0
   19.4440   67.2150   32.1560 C   0  0  0  0  0  0  0  0  0  0  0  0
   20.2020   65.9040   32.2790 C   0  0  0  0  0  0  0  0  0  0  0  0
   15.7710   62.2070   33.5890 C   0  0  0  0  0  0  0  0  0  0  0  0
   15.1560   60.8470   33.2520 C   0  0  0  0  0  0  0  0  0  0  0  0
   15.8770   59.6880   33.0320 N   0  0  0  0  0  0  0  0  0  0  0  0
   14.9320   58.7770   32.7890 C   0  0  0  0  0  0  0  0  0  0  0  0
   15.0320   57.4250   32.4700 N   0  0  0  0  0  0  0  0  0  0  0  0
   13.9720   56.7130   32.2220 C   0  0  0  0  0  0  0  0  0  0  0  0
   14.0680   55.2350   31.8720 C   0  0  0  0  0  0  0  0  0  0  0  0
   12.6180   57.3120   32.2310 C   0  0  0  0  0  0  0  0  0  0  0  0
   12.5380   58.6020   32.5310 C   0  0  0  0  0  0  0  0  0  0  0  0
   11.2200   59.3170   32.5450 C   0  0  0  0  0  0  0  0  0  0  0  0
   13.7050   59.3650   32.8270 N   0  0  0  0  0  0  0  0  0  0  0  0
   13.8300   60.6880   33.0680 N   0  0  0  0  0  0  0  0  0  0  0  0
   20.8450   63.3900   31.0810 C   0  0  0  0  0  0  0  0  0  0  0  0
   21.7970   62.3330   31.6250 C   0  0  0  0  0  0  0  0  0  0  0  0
   24.3930   64.7220   32.8650 C   0  0  0  0  0  0  0  0  0  0  0  0
   25.0000   64.0290   33.8670 N   0  0  0  0  0  0  0  0  0  0  0  0
   24.5560   62.7860   34.1230 C   0  0  0  0  0  0  0  0  0  0  0  0
   23.5160   62.2140   33.4250 C   0  0  0  0  0  0  0  0  0  0  0  0
   22.9040   62.9330   32.3980 C   0  0  0  0  0  0  0  0  0  0  0  0
   23.3480   64.2170   32.1240 C   0  0  0  0  0  0  0  0  0  0  0  0
   23.9550   66.8540   31.6220 C   0  0  0  0  0  0  0  0  0  0  0  0
   24.8840   66.1070   32.5570 C   0  0  0  0  0  0  0  0  0  0  0  0
   25.2300   62.0070   35.2250 C   0  0  0  0  0  0  0  0  0  0  0  0
   26.0520   60.8590   34.6770 C   0  0  0  0  0  0  0  0  0  0  0  0
  1 26  1  6  0  0  0
  1  9  1  0  0  0  0
  1  8  1  0  0  0  0
  2  3  1  0  0  0  0
  2  1  1  0  0  0  0
  3  5  1  0  0  0  0
  4  3  2  0  0  0  0
  5 14  1  1  0  0  0
  5  6  1  0  0  0  0
  6  7  2  0  0  0  0
  8  6  1  0  0  0  0
  9 13  1  0  0  0  0
 10 11  1  0  0  0  0
 10  9  1  0  0  0  0
 11 12  1  0  0  0  0
 12 13  1  0  0  0  0
 15 14  1  0  0  0  0
 16 15  2  0  0  0  0
 17 24  1  0  0  0  0
 17 16  2  0  0  0  0
 18 17  2  0  0  0  0
 19 21  1  0  0  0  0
 19 18  2  0  0  0  0
 20 19  1  0  0  0  0
 21 22  2  0  0  0  0
 22 23  1  0  0  0  0
 22 24  1  0  0  0  0
 24 25  1  0  0  0  0
 25 15  2  0  0  0  0
 26 27  1  0  0  0  0
 27 32  1  0  0  0  0
 28 29  2  0  0  0  0
 29 30  2  0  0  0  0
 30 36  1  0  0  0  0
 31 30  1  0  0  0  0
 32 31  2  0  0  0  0
 33 32  1  0  0  0  0
 33 28  1  0  0  0  0
 34 35  1  0  0  0  0
 35 28  1  0  0  0  0
 37 36  1  0  0  0  0
M  END
>  <minimizedAffinity>
-9.06008816

$$$$

 OpenBabel12271915203D

 37 41  0  0  1  0  0  0  0  0999 V2000
   19.0540   67.0290   31.6880 C   0  0  2  0  0  0  0  0  0  0  0  0
   18.8730   67.9890   32.7330 O   0  0  0  0  0  0  0  0  0  0  0  0
   18.2420   69.1330   32.4740 C   0  0  0  0  0  0  0  0  0  0  0  0
   17.6850   69.7090   33.4000 O   0  0  0  0  0  0  0  0  0  0  0  0
   18.2500   69.6200   31.0890 C   0  0  1  0  0  0  0  0  0  0  0  0
   18.8830   68.9700   30.0390 C   0  0  0  0  0  0  0  0  0  0  0  0
   18.9570   69.2000   28.8440 O   0  0  0  0  0  0  0  0  0  0  0  0
   19.6240   67.6690   30.4270 C   0  0  0  0  0  0  0  0  0  0  0  0
   17.6720   66.4460   31.3900 C   0  0  0  0  0  0  0  0  0  0  0  0
   17.5590   64.9340   31.5450 C   0  0  0  0  0  0  0  0  0  0  0  0
   16.1580   64.6730   31.0230 C   0  0  0  0  0  0  0  0  0  0  0  0
   15.8810   65.7650   29.9900 C   0  0  0  0  0  0  0  0  0  0  0  0
   17.0940   66.6800   30.0030 C   0  0  0  0  0  0  0  0  0  0  0  0
   17.4660   70.9370   30.9140 C   0  0  0  0  0  0  0  0  0  0  0  0
   16.2150   70.8640   30.0380 C   0  0  0  0  0  0  0  0  0  0  0  0
   15.9300   71.7280   28.9970 N   0  0  0  0  0  0  0  0  0  0  0  0
   14.7640   71.2780   28.5290 C   0  0  0  0  0  0  0  0  0  0  0  0
   13.9520   71.7480   27.5000 N   0  0  0  0  0  0  0  0  0  0  0  0
   12.8130   71.1820   27.2310 C   0  0  0  0  0  0  0  0  0  0  0  0
   11.9160   71.6880   26.1090 C   0  0  0  0  0  0  0  0  0  0  0  0
   12.3110   70.0380   28.0240 C   0  0  0  0  0  0  0  0  0  0  0  0
   13.0910   69.6030   29.0050 C   0  0  0  0  0  0  0  0  0  0  0  0
   12.6710   68.4660   29.8880 C   0  0  0  0  0  0  0  0  0  0  0  0
   14.3500   70.2150   29.2730 N   0  0  0  0  0  0  0  0  0  0  0  0
   15.2320   69.9710   30.2670 N   0  0  0  0  0  0  0  0  0  0  0  0
   19.9410   65.8900   32.2690 C   0  0  0  0  0  0  0  0  0  0  0  0
   21.4140   66.2300   32.0890 C   0  0  0  0  0  0  0  0  0  0  0  0
   22.6500   62.9890   33.4870 C   0  0  0  0  0  0  0  0  0  0  0  0
   23.9760   63.0020   33.1750 N   0  0  0  0  0  0  0  0  0  0  0  0
   24.4500   64.0720   32.5140 C   0  0  0  0  0  0  0  0  0  0  0  0
   23.6470   65.1250   32.1380 C   0  0  0  0  0  0  0  0  0  0  0  0
   22.2920   65.1030   32.4670 C   0  0  0  0  0  0  0  0  0  0  0  0
   21.7850   64.0060   33.1450 C   0  0  0  0  0  0  0  0  0  0  0  0
   23.1650   61.1080   35.0610 C   0  0  0  0  0  0  0  0  0  0  0  0
   22.1050   61.8090   34.2360 C   0  0  0  0  0  0  0  0  0  0  0  0
   25.9200   64.0970   32.1730 C   0  0  0  0  0  0  0  0  0  0  0  0
   26.5240   62.7090   32.2030 C   0  0  0  0  0  0  0  0  0  0  0  0
  1 26  1  1  0  0  0
  1  2  1  0  0  0  0
  3  2  1  0  0  0  0
  3  4  2  0  0  0  0
  5 14  1  6  0  0  0
  5  3  1  0  0  0  0
  6  8  1  0  0  0  0
  6  5  1  0  0  0  0
  7  6  2  0  0  0  0
  8  1  1  0  0  0  0
  9 10  1  0  0  0  0
  9  1  1  0  0  0  0
 11 10  1  0  0  0  0
 12 13  1  0  0  0  0
 12 11  1  0  0  0  0
 13  9  1  0  0  0  0
 15 25  2  0  0  0  0
 15 14  1  0  0  0  0
 16 15  2  0  0  0  0
 17 16  2  0  0  0  0
 17 24  1  0  0  0  0
 18 17  2  0  0  0  0
 19 18  2  0  0  0  0
 19 21  1  0  0  0  0
 20 19  1  0  0  0  0
 21 22  2  0  0  0  0
 22 24  1  0  0  0  0
 22 23  1  0  0  0  0
 24 25  1  0  0  0  0
 27 26  1  0  0  0  0
 27 32  1  0  0  0  0
 28 35  1  0  0  0  0
 29 28  2  0  0  0  0
 30 29  2  0  0  0  0
 31 32  2  0  0  0  0
 31 30  1  0  0  0  0
 32 33  1  0  0  0  0
 33 28  1  0  0  0  0
 35 34  1  0  0  0  0
 36 37  1  0  0  0  0
 36 30  1  0  0  0  0
M  END
>  <minimizedAffinity>
-9.02668762

$$$$
