
 OpenBabel12271915153D

 24 27  0  0  0  0  0  0  0  0999 V2000
   23.2690   63.9620   33.8910 N   0  0  0  0  0  0  0  0  0  0  0  0
   21.9800   63.6960   33.4680 C   0  0  0  0  0  0  0  0  0  0  0  0
   21.2240   62.6820   33.9650 N   0  0  0  0  0  0  0  0  0  0  0  0
   21.2670   61.3440   33.3510 C   0  0  0  0  0  0  0  0  0  0  0  0
   20.0410   61.0520   32.4560 C   0  0  0  0  0  0  0  0  0  0  0  0
   18.8840   61.9460   32.7560 N   0  0  0  0  0  0  0  0  0  0  0  0
   19.0350   62.8370   32.2460 H   0  0  0  0  0  0  0  0  0  0  0  0
   18.0230   61.5390   32.3990 H   0  0  0  0  0  0  0  0  0  0  0  0
   18.7570   62.2740   34.2070 C   0  0  0  0  0  0  0  0  0  0  0  0
   20.0040   63.0210   34.7230 C   0  0  0  0  0  0  0  0  0  0  0  0
   21.6240   64.6100   32.5880 N   0  0  0  0  0  0  0  0  0  0  0  0
   22.6740   65.4650   32.4310 C   0  0  0  0  0  0  0  0  0  0  0  0
   22.8060   66.6030   31.6260 C   0  0  0  0  0  0  0  0  0  0  0  0
   24.0140   67.3130   31.6490 C   0  0  0  0  0  0  0  0  0  0  0  0
   25.0620   66.8980   32.4550 C   0  0  0  0  0  0  0  0  0  0  0  0
   24.9280   65.7620   33.2520 C   0  0  0  0  0  0  0  0  0  0  0  0
   23.7250   65.0680   33.2280 C   0  0  0  0  0  0  0  0  0  0  0  0
   24.0430   63.1580   34.8130 C   0  0  0  0  0  0  0  0  0  0  0  0
   25.1540   62.3780   34.1570 C   0  0  0  0  0  0  0  0  0  0  0  0
   25.6560   61.2170   34.7500 C   0  0  0  0  0  0  0  0  0  0  0  0
   26.7010   60.5070   34.1680 C   0  0  0  0  0  0  0  0  0  0  0  0
   27.2600   60.9450   32.9750 C   0  0  0  0  0  0  0  0  0  0  0  0
   26.7700   62.1010   32.3790 C   0  0  0  0  0  0  0  0  0  0  0  0
   25.7300   62.8080   32.9670 C   0  0  0  0  0  0  0  0  0  0  0  0
  1 18  1  0  0  0  0
  2  1  1  0  0  0  0
  2  3  1  0  0  0  0
  3 10  1  0  0  0  0
  4  3  1  0  0  0  0
  5  6  1  0  0  0  0
  5  4  1  0  0  0  0
  6  9  1  0  0  0  0
  7  6  1  0  0  0  0
  8  6  1  0  0  0  0
  9 10  1  0  0  0  0
 11  2  2  0  0  0  0
 12 11  2  0  0  0  0
 12 17  1  0  0  0  0
 13 14  1  0  0  0  0
 13 12  1  0  0  0  0
 14 15  2  0  0  0  0
 15 16  1  0  0  0  0
 17 16  2  0  0  0  0
 17  1  1  0  0  0  0
 19 20  2  0  0  0  0
 19 18  1  0  0  0  0
 21 20  1  0  0  0  0
 22 21  2  0  0  0  0
 23 24  2  0  0  0  0
 23 22  1  0  0  0  0
 24 19  1  0  0  0  0
M  END
>  <minimizedAffinity>
-8.77314854

$$$$

 OpenBabel12271915153D

 24 27  0  0  0  0  0  0  0  0999 V2000
   22.1590   64.0390   32.1400 N   0  0  0  0  0  0  0  0  0  0  0  0
   20.8120   64.1570   32.4270 C   0  0  0  0  0  0  0  0  0  0  0  0
   20.0050   63.0930   32.6800 N   0  0  0  0  0  0  0  0  0  0  0  0
   19.2960   62.4140   31.5820 C   0  0  0  0  0  0  0  0  0  0  0  0
   17.8010   62.7980   31.5020 C   0  0  0  0  0  0  0  0  0  0  0  0
   17.2870   63.3780   32.7760 N   0  0  0  0  0  0  0  0  0  0  0  0
   17.5380   64.3850   32.7860 H   0  0  0  0  0  0  0  0  0  0  0  0
   16.2720   63.3230   32.8050 H   0  0  0  0  0  0  0  0  0  0  0  0
   17.8900   62.7520   33.9910 C   0  0  0  0  0  0  0  0  0  0  0  0
   19.4190   62.9590   34.0270 C   0  0  0  0  0  0  0  0  0  0  0  0
   20.4980   65.4360   32.4750 N   0  0  0  0  0  0  0  0  0  0  0  0
   21.6290   66.1500   32.2150 C   0  0  0  0  0  0  0  0  0  0  0  0
   21.8360   67.5340   32.1570 C   0  0  0  0  0  0  0  0  0  0  0  0
   23.1190   68.0150   31.8610 C   0  0  0  0  0  0  0  0  0  0  0  0
   24.1670   67.1390   31.6300 C   0  0  0  0  0  0  0  0  0  0  0  0
   23.9550   65.7610   31.6850 C   0  0  0  0  0  0  0  0  0  0  0  0
   22.6820   65.2930   31.9850 C   0  0  0  0  0  0  0  0  0  0  0  0
   22.8810   62.7990   31.9470 C   0  0  0  0  0  0  0  0  0  0  0  0
   23.5800   62.3020   33.1860 C   0  0  0  0  0  0  0  0  0  0  0  0
   24.9420   62.5410   33.3800 C   0  0  0  0  0  0  0  0  0  0  0  0
   25.6030   62.0600   34.5060 C   0  0  0  0  0  0  0  0  0  0  0  0
   24.9080   61.3340   35.4630 C   0  0  0  0  0  0  0  0  0  0  0  0
   23.5530   61.0870   35.2770 C   0  0  0  0  0  0  0  0  0  0  0  0
   22.9000   61.5660   34.1490 C   0  0  0  0  0  0  0  0  0  0  0  0
  1  2  1  0  0  0  0
  2 11  2  0  0  0  0
  2  3  1  0  0  0  0
  3 10  1  0  0  0  0
  4  3  1  0  0  0  0
  5  4  1  0  0  0  0
  5  6  1  0  0  0  0
  6  7  1  0  0  0  0
  6  8  1  0  0  0  0
  6  9  1  0  0  0  0
  9 10  1  0  0  0  0
 12 11  2  0  0  0  0
 13 12  1  0  0  0  0
 14 13  1  0  0  0  0
 15 16  1  0  0  0  0
 15 14  2  0  0  0  0
 16 17  2  0  0  0  0
 17  1  1  0  0  0  0
 17 12  1  0  0  0  0
 18  1  1  0  0  0  0
 18 19  1  0  0  0  0
 19 20  2  0  0  0  0
 19 24  1  0  0  0  0
 20 21  1  0  0  0  0
 21 22  2  0  0  0  0
 23 22  1  0  0  0  0
 24 23  2  0  0  0  0
M  END
>  <minimizedAffinity>
-8.58447456

$$$$

 OpenBabel12271915153D

 24 27  0  0  0  0  0  0  0  0999 V2000
   22.1920   64.9490   32.1790 N   0  0  0  0  0  0  0  0  0  0  0  0
   21.1040   64.1430   32.4520 C   0  0  0  0  0  0  0  0  0  0  0  0
   21.2020   62.8080   32.6890 N   0  0  0  0  0  0  0  0  0  0  0  0
   21.1250   61.8430   31.5790 C   0  0  0  0  0  0  0  0  0  0  0  0
   19.7510   61.1420   31.4850 C   0  0  0  0  0  0  0  0  0  0  0  0
   18.9760   61.2210   32.7580 N   0  0  0  0  0  0  0  0  0  0  0  0
   18.4970   62.1410   32.7770 H   0  0  0  0  0  0  0  0  0  0  0  0
   18.2520   60.5070   32.7750 H   0  0  0  0  0  0  0  0  0  0  0  0
   19.8370   61.1360   33.9750 C   0  0  0  0  0  0  0  0  0  0  0  0
   20.8460   62.3030   34.0290 C   0  0  0  0  0  0  0  0  0  0  0  0
   20.0210   64.8920   32.5050 N   0  0  0  0  0  0  0  0  0  0  0  0
   20.3970   66.1800   32.2620 C   0  0  0  0  0  0  0  0  0  0  0  0
   19.6370   67.3540   32.2150 C   0  0  0  0  0  0  0  0  0  0  0  0
   20.2800   68.5680   31.9360 C   0  0  0  0  0  0  0  0  0  0  0  0
   21.6470   68.6080   31.7120 C   0  0  0  0  0  0  0  0  0  0  0  0
   22.4000   67.4350   31.7560 C   0  0  0  0  0  0  0  0  0  0  0  0
   21.7550   66.2370   32.0380 C   0  0  0  0  0  0  0  0  0  0  0  0
   23.5550   64.5000   31.9860 C   0  0  0  0  0  0  0  0  0  0  0  0
   24.1260   63.7600   33.1680 C   0  0  0  0  0  0  0  0  0  0  0  0
   24.2640   64.3920   34.4060 C   0  0  0  0  0  0  0  0  0  0  0  0
   24.8170   63.7260   35.4950 C   0  0  0  0  0  0  0  0  0  0  0  0
   25.2380   62.4100   35.3650 C   0  0  0  0  0  0  0  0  0  0  0  0
   25.1090   61.7730   34.1360 C   0  0  0  0  0  0  0  0  0  0  0  0
   24.5600   62.4440   33.0520 C   0  0  0  0  0  0  0  0  0  0  0  0
  1  2  1  0  0  0  0
  2 11  2  0  0  0  0
  2  3  1  0  0  0  0
  3 10  1  0  0  0  0
  4  3  1  0  0  0  0
  5  4  1  0  0  0  0
  5  6  1  0  0  0  0
  6  8  1  0  0  0  0
  6  7  1  0  0  0  0
  6  9  1  0  0  0  0
  9 10  1  0  0  0  0
 12 11  2  0  0  0  0
 13 12  1  0  0  0  0
 14 13  1  0  0  0  0
 15 16  1  0  0  0  0
 15 14  2  0  0  0  0
 16 17  2  0  0  0  0
 17  1  1  0  0  0  0
 17 12  1  0  0  0  0
 18  1  1  0  0  0  0
 18 19  1  0  0  0  0
 19 20  1  0  0  0  0
 20 21  2  0  0  0  0
 22 21  1  0  0  0  0
 23 22  2  0  0  0  0
 24 19  2  0  0  0  0
 24 23  1  0  0  0  0
M  END
>  <minimizedAffinity>
-8.04136562

$$$$

 OpenBabel12271915153D

 24 27  0  0  0  0  0  0  0  0999 V2000
   22.4630   62.6360   32.4910 N   0  0  0  0  0  0  0  0  0  0  0  0
   21.2910   62.0880   32.9780 C   0  0  0  0  0  0  0  0  0  0  0  0
   20.1000   62.1690   32.3280 N   0  0  0  0  0  0  0  0  0  0  0  0
   19.1920   63.3030   32.5680 C   0  0  0  0  0  0  0  0  0  0  0  0
   18.0080   62.9420   33.4940 C   0  0  0  0  0  0  0  0  0  0  0  0
   17.7670   61.4720   33.5710 N   0  0  0  0  0  0  0  0  0  0  0  0
   18.4250   61.0820   34.2730 H   0  0  0  0  0  0  0  0  0  0  0  0
   16.8260   61.2870   33.9100 H   0  0  0  0  0  0  0  0  0  0  0  0
   18.0160   60.7670   32.2790 C   0  0  0  0  0  0  0  0  0  0  0  0
   19.4850   60.9240   31.8310 C   0  0  0  0  0  0  0  0  0  0  0  0
   21.5550   61.4480   34.0990 N   0  0  0  0  0  0  0  0  0  0  0  0
   22.8890   61.5800   34.3470 C   0  0  0  0  0  0  0  0  0  0  0  0
   23.6710   61.0840   35.3970 C   0  0  0  0  0  0  0  0  0  0  0  0
   25.0420   61.3740   35.4170 C   0  0  0  0  0  0  0  0  0  0  0  0
   25.6170   62.1390   34.4150 C   0  0  0  0  0  0  0  0  0  0  0  0
   24.8340   62.6350   33.3730 C   0  0  0  0  0  0  0  0  0  0  0  0
   23.4770   62.3370   33.3580 C   0  0  0  0  0  0  0  0  0  0  0  0
   22.5860   63.4630   31.3090 C   0  0  0  0  0  0  0  0  0  0  0  0
   22.7920   64.9250   31.6070 C   0  0  0  0  0  0  0  0  0  0  0  0
   21.7110   65.7420   31.9470 C   0  0  0  0  0  0  0  0  0  0  0  0
   21.8860   67.1000   32.1950 C   0  0  0  0  0  0  0  0  0  0  0  0
   23.1520   67.6650   32.1120 C   0  0  0  0  0  0  0  0  0  0  0  0
   24.2340   66.8610   31.7710 C   0  0  0  0  0  0  0  0  0  0  0  0
   24.0510   65.5080   31.5200 C   0  0  0  0  0  0  0  0  0  0  0  0
  1  2  1  0  0  0  0
  1 17  1  0  0  0  0
  2 11  2  0  0  0  0
  3  4  1  0  0  0  0
  3  2  1  0  0  0  0
  4  5  1  0  0  0  0
  5  6  1  0  0  0  0
  6  8  1  0  0  0  0
  6  7  1  0  0  0  0
  9  6  1  0  0  0  0
 10  9  1  0  0  0  0
 10  3  1  0  0  0  0
 11 12  2  0  0  0  0
 12 13  1  0  0  0  0
 13 14  1  0  0  0  0
 15 14  2  0  0  0  0
 16 15  1  0  0  0  0
 17 16  2  0  0  0  0
 17 12  1  0  0  0  0
 18 19  1  0  0  0  0
 18  1  1  0  0  0  0
 19 20  1  0  0  0  0
 20 21  2  0  0  0  0
 22 21  1  0  0  0  0
 23 22  2  0  0  0  0
 24 19  2  0  0  0  0
 24 23  1  0  0  0  0
M  END
>  <minimizedAffinity>
-7.89587116

$$$$

 OpenBabel12271915153D

 24 27  0  0  0  0  0  0  0  0999 V2000
   20.9810   65.8250   32.5590 N   0  0  0  0  0  0  0  0  0  0  0  0
   20.6610   66.9890   31.8850 C   0  0  0  0  0  0  0  0  0  0  0  0
   19.3880   67.4370   31.7270 N   0  0  0  0  0  0  0  0  0  0  0  0
   18.5870   67.0240   30.5630 C   0  0  0  0  0  0  0  0  0  0  0  0
   18.4950   68.1180   29.4750 C   0  0  0  0  0  0  0  0  0  0  0  0
   18.8150   69.4780   30.0000 N   0  0  0  0  0  0  0  0  0  0  0  0
   19.8480   69.5780   30.0040 H   0  0  0  0  0  0  0  0  0  0  0  0
   18.4480   70.1920   29.3760 H   0  0  0  0  0  0  0  0  0  0  0  0
   18.3370   69.6950   31.3980 C   0  0  0  0  0  0  0  0  0  0  0  0
   19.0030   68.7040   32.3770 C   0  0  0  0  0  0  0  0  0  0  0  0
   21.7760   67.5820   31.5080 N   0  0  0  0  0  0  0  0  0  0  0  0
   22.8180   66.8100   31.9260 C   0  0  0  0  0  0  0  0  0  0  0  0
   24.1990   66.9950   31.7890 C   0  0  0  0  0  0  0  0  0  0  0  0
   25.0680   66.0310   32.3160 C   0  0  0  0  0  0  0  0  0  0  0  0
   24.5720   64.9110   32.9640 C   0  0  0  0  0  0  0  0  0  0  0  0
   23.1960   64.7280   33.0950 C   0  0  0  0  0  0  0  0  0  0  0  0
   22.3420   65.6920   32.5750 C   0  0  0  0  0  0  0  0  0  0  0  0
   20.0370   64.8610   33.0840 C   0  0  0  0  0  0  0  0  0  0  0  0
   20.3690   63.4330   32.7370 C   0  0  0  0  0  0  0  0  0  0  0  0
   20.7020   62.5160   33.7370 C   0  0  0  0  0  0  0  0  0  0  0  0
   21.0400   61.2030   33.4250 C   0  0  0  0  0  0  0  0  0  0  0  0
   21.0430   60.7820   32.1020 C   0  0  0  0  0  0  0  0  0  0  0  0
   20.7170   61.6870   31.0990 C   0  0  0  0  0  0  0  0  0  0  0  0
   20.3860   62.9970   31.4170 C   0  0  0  0  0  0  0  0  0  0  0  0
  1 17  1  0  0  0  0
  1 18  1  0  0  0  0
  2  1  1  0  0  0  0
  3  2  1  0  0  0  0
  3 10  1  0  0  0  0
  4  3  1  0  0  0  0
  5  6  1  0  0  0  0
  5  4  1  0  0  0  0
  6  7  1  0  0  0  0
  6  9  1  0  0  0  0
  8  6  1  0  0  0  0
  9 10  1  0  0  0  0
 11  2  2  0  0  0  0
 11 12  2  0  0  0  0
 12 17  1  0  0  0  0
 13 12  1  0  0  0  0
 13 14  1  0  0  0  0
 14 15  2  0  0  0  0
 15 16  1  0  0  0  0
 17 16  2  0  0  0  0
 19 18  1  0  0  0  0
 19 20  2  0  0  0  0
 21 20  1  0  0  0  0
 22 21  2  0  0  0  0
 23 24  2  0  0  0  0
 23 22  1  0  0  0  0
 24 19  1  0  0  0  0
M  END
>  <minimizedAffinity>
-7.81489944

$$$$

 OpenBabel12271915153D

 24 27  0  0  0  0  0  0  0  0999 V2000
   20.9740   65.5860   32.1330 N   0  0  0  0  0  0  0  0  0  0  0  0
   19.7860   66.1770   31.7470 C   0  0  0  0  0  0  0  0  0  0  0  0
   19.6600   67.5060   31.4910 N   0  0  0  0  0  0  0  0  0  0  0  0
   19.3080   68.4470   32.5680 C   0  0  0  0  0  0  0  0  0  0  0  0
   17.8260   68.8840   32.5250 C   0  0  0  0  0  0  0  0  0  0  0  0
   17.1980   68.6560   31.1900 N   0  0  0  0  0  0  0  0  0  0  0  0
   16.8990   67.6640   31.1500 H   0  0  0  0  0  0  0  0  0  0  0  0
   16.3600   69.2250   31.0940 H   0  0  0  0  0  0  0  0  0  0  0  0
   18.1360   68.8910   30.0530 C   0  0  0  0  0  0  0  0  0  0  0  0
   19.3410   67.9300   30.1140 C   0  0  0  0  0  0  0  0  0  0  0  0
   18.8680   65.2410   31.6160 N   0  0  0  0  0  0  0  0  0  0  0  0
   19.4480   64.0460   31.9190 C   0  0  0  0  0  0  0  0  0  0  0  0
   18.9140   62.7520   31.9250 C   0  0  0  0  0  0  0  0  0  0  0  0
   19.7400   61.6790   32.2860 C   0  0  0  0  0  0  0  0  0  0  0  0
   21.0650   61.8920   32.6310 C   0  0  0  0  0  0  0  0  0  0  0  0
   21.5920   63.1830   32.6280 C   0  0  0  0  0  0  0  0  0  0  0  0
   20.7680   64.2400   32.2630 C   0  0  0  0  0  0  0  0  0  0  0  0
   22.2090   66.2790   32.4360 C   0  0  0  0  0  0  0  0  0  0  0  0
   23.3860   65.3620   32.6460 C   0  0  0  0  0  0  0  0  0  0  0  0
   23.7550   64.9590   33.9310 C   0  0  0  0  0  0  0  0  0  0  0  0
   24.8590   64.1370   34.1380 C   0  0  0  0  0  0  0  0  0  0  0  0
   25.6110   63.6970   33.0560 C   0  0  0  0  0  0  0  0  0  0  0  0
   25.2540   64.0960   31.7740 C   0  0  0  0  0  0  0  0  0  0  0  0
   24.1540   64.9200   31.5750 C   0  0  0  0  0  0  0  0  0  0  0  0
  1 17  1  0  0  0  0
  1 18  1  0  0  0  0
  2  1  1  0  0  0  0
  3  2  1  0  0  0  0
  3  4  1  0  0  0  0
  5  4  1  0  0  0  0
  6  5  1  0  0  0  0
  7  6  1  0  0  0  0
  8  6  1  0  0  0  0
  9 10  1  0  0  0  0
  9  6  1  0  0  0  0
 10  3  1  0  0  0  0
 11  2  2  0  0  0  0
 11 12  2  0  0  0  0
 12 13  1  0  0  0  0
 12 17  1  0  0  0  0
 13 14  1  0  0  0  0
 14 15  2  0  0  0  0
 16 15  1  0  0  0  0
 17 16  2  0  0  0  0
 18 19  1  0  0  0  0
 19 20  2  0  0  0  0
 20 21  1  0  0  0  0
 22 21  2  0  0  0  0
 23 22  1  0  0  0  0
 24 23  2  0  0  0  0
 24 19  1  0  0  0  0
M  END
>  <minimizedAffinity>
-7.62357712

$$$$

 OpenBabel12271915153D

 24 27  0  0  0  0  0  0  0  0999 V2000
   20.4890   64.9200   32.8690 N   0  0  0  0  0  0  0  0  0  0  0  0
   19.8740   63.7840   32.3780 C   0  0  0  0  0  0  0  0  0  0  0  0
   20.1510   62.5310   32.8240 N   0  0  0  0  0  0  0  0  0  0  0  0
   21.2160   61.7310   32.1960 C   0  0  0  0  0  0  0  0  0  0  0  0
   20.6720   60.6490   31.2360 C   0  0  0  0  0  0  0  0  0  0  0  0
   19.2380   60.3260   31.4880 N   0  0  0  0  0  0  0  0  0  0  0  0
   18.6650   61.0390   30.9980 H   0  0  0  0  0  0  0  0  0  0  0  0
   19.0030   59.4240   31.0820 H   0  0  0  0  0  0  0  0  0  0  0  0
   18.8710   60.3720   32.9350 C   0  0  0  0  0  0  0  0  0  0  0  0
   19.0890   61.7820   33.5230 C   0  0  0  0  0  0  0  0  0  0  0  0
   18.9650   64.1420   31.4930 N   0  0  0  0  0  0  0  0  0  0  0  0
   18.9900   65.5020   31.4000 C   0  0  0  0  0  0  0  0  0  0  0  0
   18.2230   66.3730   30.6170 C   0  0  0  0  0  0  0  0  0  0  0  0
   18.4570   67.7510   30.7100 C   0  0  0  0  0  0  0  0  0  0  0  0
   19.4300   68.2470   31.5630 C   0  0  0  0  0  0  0  0  0  0  0  0
   20.1940   67.3760   32.3390 C   0  0  0  0  0  0  0  0  0  0  0  0
   19.9520   66.0110   32.2440 C   0  0  0  0  0  0  0  0  0  0  0  0
   21.5810   64.9510   33.8200 C   0  0  0  0  0  0  0  0  0  0  0  0
   22.9270   64.6540   33.2110 C   0  0  0  0  0  0  0  0  0  0  0  0
   23.8310   63.8090   33.8580 C   0  0  0  0  0  0  0  0  0  0  0  0
   25.0880   63.5520   33.3200 C   0  0  0  0  0  0  0  0  0  0  0  0
   25.4610   64.1350   32.1160 C   0  0  0  0  0  0  0  0  0  0  0  0
   24.5700   64.9810   31.4660 C   0  0  0  0  0  0  0  0  0  0  0  0
   23.3190   65.2370   32.0110 C   0  0  0  0  0  0  0  0  0  0  0  0
  1 18  1  0  0  0  0
  2  3  1  0  0  0  0
  2  1  1  0  0  0  0
  3 10  1  0  0  0  0
  4  3  1  0  0  0  0
  5  6  1  0  0  0  0
  5  4  1  0  0  0  0
  6  9  1  0  0  0  0
  7  6  1  0  0  0  0
  8  6  1  0  0  0  0
  9 10  1  0  0  0  0
 11  2  2  0  0  0  0
 12 11  2  0  0  0  0
 12 17  1  0  0  0  0
 13 14  1  0  0  0  0
 13 12  1  0  0  0  0
 14 15  2  0  0  0  0
 15 16  1  0  0  0  0
 17 16  2  0  0  0  0
 17  1  1  0  0  0  0
 19 18  1  0  0  0  0
 19 20  2  0  0  0  0
 21 20  1  0  0  0  0
 22 21  2  0  0  0  0
 23 24  2  0  0  0  0
 23 22  1  0  0  0  0
 24 19  1  0  0  0  0
M  END
>  <minimizedAffinity>
-7.5986557

$$$$

 OpenBabel12271915153D

 24 27  0  0  0  0  0  0  0  0999 V2000
   18.7510   63.8770   32.1180 N   0  0  0  0  0  0  0  0  0  0  0  0
   17.8090   63.0190   32.6520 C   0  0  0  0  0  0  0  0  0  0  0  0
   16.5490   62.8900   32.1600 N   0  0  0  0  0  0  0  0  0  0  0  0
   15.4580   63.7450   32.6590 C   0  0  0  0  0  0  0  0  0  0  0  0
   14.5270   63.0150   33.6530 C   0  0  0  0  0  0  0  0  0  0  0  0
   14.6260   61.5300   33.5490 N   0  0  0  0  0  0  0  0  0  0  0  0
   15.4460   61.2290   34.1080 H   0  0  0  0  0  0  0  0  0  0  0  0
   13.8060   61.0920   33.9630 H   0  0  0  0  0  0  0  0  0  0  0  0
   14.8360   61.0530   32.1500 C   0  0  0  0  0  0  0  0  0  0  0  0
   16.1550   61.5990   31.5650 C   0  0  0  0  0  0  0  0  0  0  0  0
   18.3640   62.3370   33.6340 N   0  0  0  0  0  0  0  0  0  0  0  0
   19.6580   62.7500   33.7460 C   0  0  0  0  0  0  0  0  0  0  0  0
   20.6710   62.3370   34.6190 C   0  0  0  0  0  0  0  0  0  0  0  0
   21.9340   62.9370   34.5240 C   0  0  0  0  0  0  0  0  0  0  0  0
   22.1790   63.9220   33.5810 C   0  0  0  0  0  0  0  0  0  0  0  0
   21.1660   64.3340   32.7160 C   0  0  0  0  0  0  0  0  0  0  0  0
   19.9190   63.7300   32.8130 C   0  0  0  0  0  0  0  0  0  0  0  0
   18.5210   64.8370   31.0580 C   0  0  0  0  0  0  0  0  0  0  0  0
   18.2980   66.2440   31.5490 C   0  0  0  0  0  0  0  0  0  0  0  0
   17.0090   66.7730   31.6370 C   0  0  0  0  0  0  0  0  0  0  0  0
   16.7950   68.0810   32.0610 C   0  0  0  0  0  0  0  0  0  0  0  0
   17.8730   68.8840   32.4090 C   0  0  0  0  0  0  0  0  0  0  0  0
   19.1600   68.3690   32.3200 C   0  0  0  0  0  0  0  0  0  0  0  0
   19.3670   67.0640   31.8930 C   0  0  0  0  0  0  0  0  0  0  0  0
  1  2  1  0  0  0  0
  1 17  1  0  0  0  0
  2 11  2  0  0  0  0
  3  2  1  0  0  0  0
  3  4  1  0  0  0  0
  4  5  1  0  0  0  0
  6  5  1  0  0  0  0
  6  8  1  0  0  0  0
  6  7  1  0  0  0  0
  9  6  1  0  0  0  0
 10  9  1  0  0  0  0
 10  3  1  0  0  0  0
 11 12  2  0  0  0  0
 12 13  1  0  0  0  0
 14 13  1  0  0  0  0
 15 14  2  0  0  0  0
 16 17  2  0  0  0  0
 16 15  1  0  0  0  0
 17 12  1  0  0  0  0
 18 19  1  0  0  0  0
 18  1  1  0  0  0  0
 19 20  2  0  0  0  0
 19 24  1  0  0  0  0
 20 21  1  0  0  0  0
 21 22  2  0  0  0  0
 23 22  1  0  0  0  0
 24 23  2  0  0  0  0
M  END
>  <minimizedAffinity>
-7.46156836

$$$$

 OpenBabel12271915153D

 24 27  0  0  0  0  0  0  0  0999 V2000
   18.1670   63.7280   31.4490 N   0  0  0  0  0  0  0  0  0  0  0  0
   17.5100   64.9420   31.5120 C   0  0  0  0  0  0  0  0  0  0  0  0
   18.0620   66.1130   31.0980 N   0  0  0  0  0  0  0  0  0  0  0  0
   18.8380   66.9460   32.0320 C   0  0  0  0  0  0  0  0  0  0  0  0
   18.0460   68.1680   32.5510 C   0  0  0  0  0  0  0  0  0  0  0  0
   16.8830   68.5100   31.6820 N   0  0  0  0  0  0  0  0  0  0  0  0
   16.0950   67.8920   31.9540 H   0  0  0  0  0  0  0  0  0  0  0  0
   16.5850   69.4670   31.8540 H   0  0  0  0  0  0  0  0  0  0  0  0
   17.1490   68.2870   30.2300 C   0  0  0  0  0  0  0  0  0  0  0  0
   17.4620   66.8040   29.9410 C   0  0  0  0  0  0  0  0  0  0  0  0
   16.2870   64.7420   31.9600 N   0  0  0  0  0  0  0  0  0  0  0  0
   16.1450   63.4070   32.1950 C   0  0  0  0  0  0  0  0  0  0  0  0
   15.0460   62.6790   32.6640 C   0  0  0  0  0  0  0  0  0  0  0  0
   15.1690   61.2920   32.8230 C   0  0  0  0  0  0  0  0  0  0  0  0
   16.3580   60.6490   32.5200 C   0  0  0  0  0  0  0  0  0  0  0  0
   17.4530   61.3780   32.0570 C   0  0  0  0  0  0  0  0  0  0  0  0
   17.3200   62.7520   31.8970 C   0  0  0  0  0  0  0  0  0  0  0  0
   19.5470   63.5270   31.0610 C   0  0  0  0  0  0  0  0  0  0  0  0
   20.4590   63.1840   32.2100 C   0  0  0  0  0  0  0  0  0  0  0  0
   20.4840   63.9740   33.3610 C   0  0  0  0  0  0  0  0  0  0  0  0
   21.3450   63.6830   34.4160 C   0  0  0  0  0  0  0  0  0  0  0  0
   22.1930   62.5870   34.3380 C   0  0  0  0  0  0  0  0  0  0  0  0
   22.1790   61.7960   33.1950 C   0  0  0  0  0  0  0  0  0  0  0  0
   21.3220   62.0950   32.1450 C   0  0  0  0  0  0  0  0  0  0  0  0
  1  2  1  0  0  0  0
  1 17  1  0  0  0  0
  2 11  2  0  0  0  0
  3  2  1  0  0  0  0
  3  4  1  0  0  0  0
  4  5  1  0  0  0  0
  6  8  1  0  0  0  0
  6  7  1  0  0  0  0
  6  5  1  0  0  0  0
  9  6  1  0  0  0  0
 10  9  1  0  0  0  0
 10  3  1  0  0  0  0
 11 12  2  0  0  0  0
 12 13  1  0  0  0  0
 13 14  1  0  0  0  0
 15 14  2  0  0  0  0
 16 15  1  0  0  0  0
 17 16  2  0  0  0  0
 17 12  1  0  0  0  0
 18  1  1  0  0  0  0
 18 19  1  0  0  0  0
 19 20  1  0  0  0  0
 20 21  2  0  0  0  0
 22 21  1  0  0  0  0
 23 22  2  0  0  0  0
 24 19  2  0  0  0  0
 24 23  1  0  0  0  0
M  END
>  <minimizedAffinity>
-7.43864012

$$$$
