
 OpenBabel12271915223D

 42 46  0  0  1  0  0  0  0  0999 V2000
   19.0150   65.5580   31.3070 C   0  0  1  0  0  0  0  0  0  0  0  0
   19.4670   64.0700   31.7630 C   0  0  1  0  0  0  0  0  0  0  0  0
   20.7920   64.0450   32.5650 C   0  0  0  0  0  0  0  0  0  0  0  0
   21.8960   64.4090   31.7500 C   0  0  0  0  0  0  0  0  0  0  0  0
   23.1790   64.4780   32.3690 C   0  0  0  0  0  0  0  0  0  0  0  0
   24.3000   64.8400   31.6580 O   0  0  0  0  0  0  0  0  0  0  0  0
   25.2320   64.5870   32.7690 C   0  0  0  0  0  0  0  0  0  0  0  0
   24.6440   64.2960   34.1170 O   0  0  0  0  0  0  0  0  0  0  0  0
   23.3180   64.1950   33.6780 C   0  0  0  0  0  0  0  0  0  0  0  0
   22.2700   63.8510   34.4960 C   0  0  0  0  0  0  0  0  0  0  0  0
   20.9760   63.7570   33.9270 C   0  0  0  0  0  0  0  0  0  0  0  0
   19.9530   63.3370   34.9250 C   0  0  0  0  0  0  0  0  0  0  0  0
   19.0280   62.2970   34.3170 C   0  0  0  0  0  0  0  0  0  0  0  0
   17.9060   63.0530   33.6220 N   0  0  2  0  0  0  0  0  0  0  0  0
   17.7230   63.9100   34.0790 H   0  0  0  0  0  0  0  0  0  0  0  0
   16.6510   62.1240   33.5410 C   0  0  0  0  0  0  0  0  0  0  0  0
   16.8020   61.3770   32.2230 C   0  0  0  0  0  0  0  0  0  0  0  0
   18.0270   61.9150   31.5170 C   0  0  0  0  0  0  0  0  0  0  0  0
   18.1640   63.2990   32.1650 C   0  0  2  0  0  0  0  0  0  0  0  0
   17.0700   64.1890   31.6100 C   0  0  0  0  0  0  0  0  0  0  0  0
   17.5710   65.3610   31.1570 C   0  0  1  0  0  0  0  0  0  0  0  0
   16.7370   66.3290   30.6380 O   0  0  0  0  0  0  0  0  0  0  0  0
   15.4070   66.1260   31.0310 C   0  0  0  0  0  0  0  0  0  0  0  0
   19.3140   66.4450   32.3410 O   0  0  0  0  0  0  0  0  0  0  0  0
   19.9320   67.6040   31.8420 C   0  0  0  0  0  0  0  0  0  0  0  0
   21.0600   67.7120   31.4370 O   0  0  0  0  0  0  0  0  0  0  0  0
   18.9000   68.7900   31.8500 C   0  0  2  0  0  0  0  0  0  0  0  0
   17.7130   68.5170   32.6900 O   0  0  0  0  0  0  0  0  0  0  0  0
   17.2570   69.3770   32.7730 H   0  0  0  0  0  0  0  0  0  0  0  0
   18.4160   69.0010   30.4160 C   0  0  0  0  0  0  0  0  0  0  0  0
   17.3290   70.1020   30.4030 C   0  0  0  0  0  0  0  0  0  0  0  0
   17.6130   71.2420   30.0250 O   0  0  0  0  0  0  0  0  0  0  0  0
   16.1290   69.6130   30.7950 O   0  0  0  0  0  0  0  0  0  0  0  0
   15.0570   70.1760   30.0400 C   0  0  0  0  0  0  0  0  0  0  0  0
   19.5120   70.0180   32.5520 C   0  0  0  0  0  0  0  0  0  0  0  0
   18.8270   70.8290   33.6680 C   0  0  0  0  0  0  0  0  0  0  0  0
   18.3250   72.2190   33.2940 C   0  0  0  0  0  0  0  0  0  0  0  0
   16.9040   72.4880   33.8200 C   0  0  0  0  0  0  0  0  0  0  0  0
   16.3480   71.2650   34.5310 C   0  0  0  0  0  0  0  0  0  0  0  0
   15.9890   72.9200   32.6900 C   0  0  0  0  0  0  0  0  0  0  0  0
   17.0010   73.5760   34.7330 O   0  0  0  0  0  0  0  0  0  0  0  0
   17.6130   73.3080   35.4320 H   0  0  0  0  0  0  0  0  0  0  0  0
  1  2  1  0  0  0  0
  1 24  1  1  0  0  0
  2 19  1  1  0  0  0
  2  3  1  0  0  0  0
  3 11  1  0  0  0  0
  4  5  1  0  0  0  0
  4  3  2  0  0  0  0
  5  9  2  0  0  0  0
  6  5  1  0  0  0  0
  6  7  1  0  0  0  0
  7  8  1  0  0  0  0
  9  8  1  0  0  0  0
  9 10  1  0  0  0  0
 11 10  2  0  0  0  0
 11 12  1  0  0  0  0
 13 12  1  0  0  0  0
 14 19  1  6  0  0  0
 14 15  1  0  0  0  0
 14 13  1  0  0  0  0
 16 14  1  0  0  0  0
 17 16  1  0  0  0  0
 18 17  1  0  0  0  0
 19 18  1  6  0  0  0
 20 19  1  0  0  0  0
 21 22  1  1  0  0  0
 21  1  1  0  0  0  0
 21 20  1  0  0  0  0
 22 23  1  0  0  0  0
 25 27  1  0  0  0  0
 25 24  1  0  0  0  0
 26 25  2  0  0  0  0
 27 30  1  6  0  0  0
 27 35  1  0  0  0  0
 27 28  1  0  0  0  0
 28 29  1  0  0  0  0
 31 30  1  0  0  0  0
 31 33  1  0  0  0  0
 32 31  2  0  0  0  0
 34 33  1  0  0  0  0
 35 36  1  0  0  0  0
 37 36  1  0  0  0  0
 37 38  1  0  0  0  0
 38 39  1  0  0  0  0
 38 41  1  0  0  0  0
 40 38  1  0  0  0  0
 41 42  1  0  0  0  0
M  END
>  <minimizedAffinity>
-8.50200367

$$$$

 OpenBabel12271915223D

 42 46  0  0  1  0  0  0  0  0999 V2000
   18.9470   65.6480   31.3000 C   0  0  1  0  0  0  0  0  0  0  0  0
   19.3860   64.1530   31.7470 C   0  0  1  0  0  0  0  0  0  0  0  0
   20.6960   64.1150   32.5730 C   0  0  0  0  0  0  0  0  0  0  0  0
   21.8150   64.4850   31.7830 C   0  0  0  0  0  0  0  0  0  0  0  0
   23.0870   64.5440   32.4270 C   0  0  0  0  0  0  0  0  0  0  0  0
   24.2230   64.9100   31.7420 O   0  0  0  0  0  0  0  0  0  0  0  0
   25.1330   64.6410   32.8670 C   0  0  0  0  0  0  0  0  0  0  0  0
   24.5180   64.3370   34.2010 O   0  0  0  0  0  0  0  0  0  0  0  0
   23.2010   64.2450   33.7350 C   0  0  0  0  0  0  0  0  0  0  0  0
   22.1360   63.8940   34.5290 C   0  0  0  0  0  0  0  0  0  0  0  0
   20.8530   63.8100   33.9350 C   0  0  0  0  0  0  0  0  0  0  0  0
   19.8110   63.3820   34.9080 C   0  0  0  0  0  0  0  0  0  0  0  0
   18.8940   62.3520   34.2710 C   0  0  0  0  0  0  0  0  0  0  0  0
   17.7870   63.1190   33.5640 N   0  0  2  0  0  0  0  0  0  0  0  0
   17.5990   63.9710   34.0270 H   0  0  0  0  0  0  0  0  0  0  0  0
   16.5320   62.1950   33.4480 C   0  0  0  0  0  0  0  0  0  0  0  0
   16.7060   61.4620   32.1250 C   0  0  0  0  0  0  0  0  0  0  0  0
   17.9450   62.0050   31.4480 C   0  0  0  0  0  0  0  0  0  0  0  0
   18.0730   63.3810   32.1150 C   0  0  2  0  0  0  0  0  0  0  0  0
   16.9930   64.2810   31.5500 C   0  0  0  0  0  0  0  0  0  0  0  0
   17.5060   65.4560   31.1200 C   0  0  1  0  0  0  0  0  0  0  0  0
   16.6840   66.4330   30.5960 O   0  0  0  0  0  0  0  0  0  0  0  0
   15.3350   66.0530   30.6480 C   0  0  0  0  0  0  0  0  0  0  0  0
   19.2280   66.5220   32.3490 O   0  0  0  0  0  0  0  0  0  0  0  0
   19.8360   67.6960   31.8720 C   0  0  0  0  0  0  0  0  0  0  0  0
   20.9450   67.8120   31.4200 O   0  0  0  0  0  0  0  0  0  0  0  0
   18.8180   68.8900   31.9790 C   0  0  2  0  0  0  0  0  0  0  0  0
   18.0190   69.0800   30.7490 O   0  0  0  0  0  0  0  0  0  0  0  0
   17.3070   69.6990   31.0010 H   0  0  0  0  0  0  0  0  0  0  0  0
   19.6180   70.1690   32.2160 C   0  0  0  0  0  0  0  0  0  0  0  0
   18.6630   71.3840   32.1530 C   0  0  0  0  0  0  0  0  0  0  0  0
   18.2120   71.7570   31.0660 O   0  0  0  0  0  0  0  0  0  0  0  0
   18.4060   71.8730   33.3890 O   0  0  0  0  0  0  0  0  0  0  0  0
   17.7440   73.1350   33.3330 C   0  0  0  0  0  0  0  0  0  0  0  0
   17.7280   68.5620   33.0190 C   0  0  0  0  0  0  0  0  0  0  0  0
   16.2540   68.9960   32.9190 C   0  0  0  0  0  0  0  0  0  0  0  0
   15.2950   68.4030   33.9450 C   0  0  0  0  0  0  0  0  0  0  0  0
   14.7610   69.4610   34.9270 C   0  0  0  0  0  0  0  0  0  0  0  0
   13.6840   70.3120   34.2730 C   0  0  0  0  0  0  0  0  0  0  0  0
   15.8940   70.3260   35.4470 C   0  0  0  0  0  0  0  0  0  0  0  0
   14.2140   68.7580   36.0360 O   0  0  0  0  0  0  0  0  0  0  0  0
   13.5180   68.1810   35.6930 H   0  0  0  0  0  0  0  0  0  0  0  0
  1  2  1  0  0  0  0
  1 24  1  1  0  0  0
  2 19  1  1  0  0  0
  2  3  1  0  0  0  0
  3 11  1  0  0  0  0
  4  5  1  0  0  0  0
  4  3  2  0  0  0  0
  5  9  2  0  0  0  0
  6  5  1  0  0  0  0
  6  7  1  0  0  0  0
  7  8  1  0  0  0  0
  9  8  1  0  0  0  0
  9 10  1  0  0  0  0
 11 10  2  0  0  0  0
 11 12  1  0  0  0  0
 13 12  1  0  0  0  0
 14 19  1  6  0  0  0
 14 15  1  0  0  0  0
 14 13  1  0  0  0  0
 16 14  1  0  0  0  0
 17 16  1  0  0  0  0
 18 17  1  0  0  0  0
 19 18  1  6  0  0  0
 20 19  1  0  0  0  0
 21 22  1  1  0  0  0
 21  1  1  0  0  0  0
 21 20  1  0  0  0  0
 22 23  1  0  0  0  0
 25 27  1  0  0  0  0
 25 24  1  0  0  0  0
 26 25  2  0  0  0  0
 27 30  1  1  0  0  0
 27 35  1  0  0  0  0
 28 29  1  0  0  0  0
 28 27  1  0  0  0  0
 31 30  1  0  0  0  0
 31 33  1  0  0  0  0
 32 31  2  0  0  0  0
 34 33  1  0  0  0  0
 36 35  2  0  0  0  0
 36 37  1  0  0  0  0
 37 38  1  0  0  0  0
 38 40  1  0  0  0  0
 38 41  1  0  0  0  0
 39 38  1  0  0  0  0
 42 41  1  0  0  0  0
M  END
>  <minimizedAffinity>
-7.95327854

$$$$

 OpenBabel12271915223D

 42 46  0  0  1  0  0  0  0  0999 V2000
   18.8000   67.3120   31.0540 C   0  0  1  0  0  0  0  0  0  0  0  0
   17.7690   68.5620   31.1150 C   0  0  1  0  0  0  0  0  0  0  0  0
   16.2870   68.1340   31.2500 C   0  0  0  0  0  0  0  0  0  0  0  0
   15.8290   67.4820   30.0760 C   0  0  0  0  0  0  0  0  0  0  0  0
   14.4910   66.9860   30.0750 C   0  0  0  0  0  0  0  0  0  0  0  0
   13.9700   66.3260   28.9860 O   0  0  0  0  0  0  0  0  0  0  0  0
   12.6130   66.2230   29.5460 C   0  0  0  0  0  0  0  0  0  0  0  0
   12.4210   66.6190   30.9800 O   0  0  0  0  0  0  0  0  0  0  0  0
   13.7050   67.1500   31.1560 C   0  0  0  0  0  0  0  0  0  0  0  0
   14.1220   67.7660   32.3110 C   0  0  0  0  0  0  0  0  0  0  0  0
   15.4380   68.2860   32.3590 C   0  0  0  0  0  0  0  0  0  0  0  0
   15.7300   68.9570   33.6560 C   0  0  0  0  0  0  0  0  0  0  0  0
   16.4700   70.2610   33.4130 C   0  0  0  0  0  0  0  0  0  0  0  0
   17.9530   69.9280   33.3580 N   0  0  2  0  0  0  0  0  0  0  0  0
   18.1600   69.1490   33.9310 H   0  0  0  0  0  0  0  0  0  0  0  0
   18.7690   71.2040   33.7410 C   0  0  0  0  0  0  0  0  0  0  0  0
   19.0050   71.9280   32.4220 C   0  0  0  0  0  0  0  0  0  0  0  0
   18.4480   71.0680   31.3100 C   0  0  0  0  0  0  0  0  0  0  0  0
   18.4580   69.6810   31.9680 C   0  0  2  0  0  0  0  0  0  0  0  0
   19.8950   69.2050   32.0380 C   0  0  0  0  0  0  0  0  0  0  0  0
   20.0260   67.9580   31.5310 C   0  0  1  0  0  0  0  0  0  0  0  0
   21.2510   67.3240   31.5280 O   0  0  0  0  0  0  0  0  0  0  0  0
   22.2850   68.2030   31.8800 C   0  0  0  0  0  0  0  0  0  0  0  0
   18.3530   66.3290   31.9360 O   0  0  0  0  0  0  0  0  0  0  0  0
   18.1230   65.1190   31.2600 C   0  0  0  0  0  0  0  0  0  0  0  0
   17.4280   64.9440   30.2930 O   0  0  0  0  0  0  0  0  0  0  0  0
   18.9570   63.9740   31.9420 C   0  0  2  0  0  0  0  0  0  0  0  0
   19.5790   63.0520   30.9660 O   0  0  0  0  0  0  0  0  0  0  0  0
   20.2150   62.5220   31.4860 H   0  0  0  0  0  0  0  0  0  0  0  0
   18.0070   63.1550   32.8140 C   0  0  0  0  0  0  0  0  0  0  0  0
   18.3850   61.6590   32.7120 C   0  0  0  0  0  0  0  0  0  0  0  0
   17.7490   60.9140   31.9600 O   0  0  0  0  0  0  0  0  0  0  0  0
   19.4600   61.3700   33.4810 O   0  0  0  0  0  0  0  0  0  0  0  0
   20.2310   60.3010   32.9340 C   0  0  0  0  0  0  0  0  0  0  0  0
   20.1910   64.5700   32.6490 C   0  0  0  0  0  0  0  0  0  0  0  0
   21.6400   64.0870   32.4510 C   0  0  0  0  0  0  0  0  0  0  0  0
   22.4140   63.7140   33.7110 C   0  0  0  0  0  0  0  0  0  0  0  0
   23.9070   63.4700   33.4280 C   0  0  0  0  0  0  0  0  0  0  0  0
   24.6970   63.3800   34.7240 C   0  0  0  0  0  0  0  0  0  0  0  0
   24.4650   64.5570   32.5280 C   0  0  0  0  0  0  0  0  0  0  0  0
   23.9980   62.2390   32.7190 O   0  0  0  0  0  0  0  0  0  0  0  0
   23.6080   61.5570   33.2830 H   0  0  0  0  0  0  0  0  0  0  0  0
  1  2  1  0  0  0  0
  1 21  1  0  0  0  0
  1 24  1  1  0  0  0
  2  3  1  0  0  0  0
  2 19  1  1  0  0  0
  3 11  1  0  0  0  0
  4  3  2  0  0  0  0
  5  4  1  0  0  0  0
  5  9  2  0  0  0  0
  6  7  1  0  0  0  0
  6  5  1  0  0  0  0
  7  8  1  0  0  0  0
  8  9  1  0  0  0  0
  9 10  1  0  0  0  0
 10 11  2  0  0  0  0
 11 12  1  0  0  0  0
 13 12  1  0  0  0  0
 14 19  1  6  0  0  0
 14 13  1  0  0  0  0
 14 16  1  0  0  0  0
 14 15  1  0  0  0  0
 17 16  1  0  0  0  0
 18 17  1  0  0  0  0
 19 18  1  6  0  0  0
 19 20  1  0  0  0  0
 21 22  1  1  0  0  0
 21 20  1  0  0  0  0
 22 23  1  0  0  0  0
 25 24  1  0  0  0  0
 25 27  1  0  0  0  0
 26 25  2  0  0  0  0
 27 35  1  1  0  0  0
 27 30  1  0  0  0  0
 28 29  1  0  0  0  0
 28 27  1  0  0  0  0
 31 30  1  0  0  0  0
 31 33  1  0  0  0  0
 32 31  2  0  0  0  0
 34 33  1  0  0  0  0
 36 35  1  0  0  0  0
 36 37  1  0  0  0  0
 38 37  1  0  0  0  0
 38 39  1  0  0  0  0
 40 38  1  0  0  0  0
 41 42  1  0  0  0  0
 41 38  1  0  0  0  0
M  END
>  <minimizedAffinity>
-7.53196716

$$$$

 OpenBabel12271915223D

 42 46  0  0  1  0  0  0  0  0999 V2000
   15.3470   62.3050   32.5230 C   0  0  1  0  0  0  0  0  0  0  0  0
   13.9490   61.7530   33.1290 C   0  0  1  0  0  0  0  0  0  0  0  0
   14.0510   60.3220   33.7130 C   0  0  0  0  0  0  0  0  0  0  0  0
   14.2840   59.3630   32.6940 C   0  0  0  0  0  0  0  0  0  0  0  0
   14.4510   58.0030   33.0910 C   0  0  0  0  0  0  0  0  0  0  0  0
   14.6980   57.0110   32.1710 O   0  0  0  0  0  0  0  0  0  0  0  0
   14.6220   55.9160   33.1520 C   0  0  0  0  0  0  0  0  0  0  0  0
   14.5460   56.2880   34.6030 O   0  0  0  0  0  0  0  0  0  0  0  0
   14.3760   57.6620   34.3920 C   0  0  0  0  0  0  0  0  0  0  0  0
   14.1630   58.5670   35.4030 C   0  0  0  0  0  0  0  0  0  0  0  0
   13.9800   59.9280   35.0600 C   0  0  0  0  0  0  0  0  0  0  0  0
   13.7210   60.7790   36.2540 C   0  0  0  0  0  0  0  0  0  0  0  0
   12.5980   61.7590   35.9630 C   0  0  0  0  0  0  0  0  0  0  0  0
   13.2340   62.9910   35.3390 N   0  0  2  0  0  0  0  0  0  0  0  0
   14.1520   63.1240   35.6800 H   0  0  0  0  0  0  0  0  0  0  0  0
   12.3030   64.2200   35.5940 C   0  0  0  0  0  0  0  0  0  0  0  0
   11.3580   64.2500   34.4000 C   0  0  0  0  0  0  0  0  0  0  0  0
   11.7810   63.1600   33.4410 C   0  0  0  0  0  0  0  0  0  0  0  0
   13.2490   62.9610   33.8390 C   0  0  2  0  0  0  0  0  0  0  0  0
   14.0400   64.1480   33.3270 C   0  0  0  0  0  0  0  0  0  0  0  0
   15.1270   63.7500   32.6270 C   0  0  1  0  0  0  0  0  0  0  0  0
   16.0010   64.6770   32.0970 O   0  0  0  0  0  0  0  0  0  0  0  0
   15.3210   65.7820   31.5690 C   0  0  0  0  0  0  0  0  0  0  0  0
   16.3850   61.8760   33.3490 O   0  0  0  0  0  0  0  0  0  0  0  0
   17.4850   61.4450   32.5880 C   0  0  0  0  0  0  0  0  0  0  0  0
   17.5030   60.5670   31.7660 O   0  0  0  0  0  0  0  0  0  0  0  0
   18.7400   62.3240   32.9410 C   0  0  2  0  0  0  0  0  0  0  0  0
   18.4180   63.4560   33.8370 O   0  0  0  0  0  0  0  0  0  0  0  0
   19.2840   63.7970   34.1370 H   0  0  0  0  0  0  0  0  0  0  0  0
   19.2890   62.9040   31.6380 C   0  0  0  0  0  0  0  0  0  0  0  0
   19.7580   64.3560   31.8870 C   0  0  0  0  0  0  0  0  0  0  0  0
   20.8480   64.5670   32.4250 O   0  0  0  0  0  0  0  0  0  0  0  0
   18.8630   65.2510   31.4060 O   0  0  0  0  0  0  0  0  0  0  0  0
   19.2500   66.5940   31.6930 C   0  0  0  0  0  0  0  0  0  0  0  0
   19.7300   61.5100   33.7970 C   0  0  0  0  0  0  0  0  0  0  0  0
   21.2440   61.4060   33.5350 C   0  0  0  0  0  0  0  0  0  0  0  0
   22.1630   62.0260   34.5820 C   0  0  0  0  0  0  0  0  0  0  0  0
   23.6000   62.2100   34.0620 C   0  0  0  0  0  0  0  0  0  0  0  0
   24.5570   61.2620   34.7660 C   0  0  0  0  0  0  0  0  0  0  0  0
   24.0460   63.6510   34.2250 C   0  0  0  0  0  0  0  0  0  0  0  0
   23.5750   61.9240   32.6670 O   0  0  0  0  0  0  0  0  0  0  0  0
   23.2550   61.0170   32.5690 H   0  0  0  0  0  0  0  0  0  0  0  0
  1 21  1  0  0  0  0
  1  2  1  0  0  0  0
  1 24  1  1  0  0  0
  2  3  1  0  0  0  0
  2 19  1  1  0  0  0
  3 11  1  0  0  0  0
  4  5  1  0  0  0  0
  4  3  2  0  0  0  0
  5  9  2  0  0  0  0
  6  5  1  0  0  0  0
  6  7  1  0  0  0  0
  7  8  1  0  0  0  0
  9  8  1  0  0  0  0
  9 10  1  0  0  0  0
 11 10  2  0  0  0  0
 11 12  1  0  0  0  0
 13 12  1  0  0  0  0
 14 19  1  6  0  0  0
 14 16  1  0  0  0  0
 14 15  1  0  0  0  0
 14 13  1  0  0  0  0
 17 16  1  0  0  0  0
 18 19  1  0  0  0  0
 18 17  1  0  0  0  0
 19 20  1  6  0  0  0
 21 22  1  1  0  0  0
 21 20  1  0  0  0  0
 23 22  1  0  0  0  0
 25 27  1  0  0  0  0
 25 24  1  0  0  0  0
 26 25  2  0  0  0  0
 27 30  1  6  0  0  0
 27 35  1  0  0  0  0
 27 28  1  0  0  0  0
 28 29  1  0  0  0  0
 30 31  1  0  0  0  0
 31 32  2  0  0  0  0
 33 34  1  0  0  0  0
 33 31  1  0  0  0  0
 36 35  1  0  0  0  0
 36 37  1  0  0  0  0
 38 40  1  0  0  0  0
 38 37  1  0  0  0  0
 38 39  1  0  0  0  0
 41 38  1  0  0  0  0
 42 41  1  0  0  0  0
M  END
>  <minimizedAffinity>
-7.1430707

$$$$

 OpenBabel12271915223D

 42 46  0  0  1  0  0  0  0  0999 V2000
   17.6670   65.8040   30.6880 C   0  0  1  0  0  0  0  0  0  0  0  0
   16.1020   65.3820   30.6470 C   0  0  1  0  0  0  0  0  0  0  0  0
   15.7550   64.2050   31.5930 C   0  0  0  0  0  0  0  0  0  0  0  0
   16.3580   62.9970   31.1560 C   0  0  0  0  0  0  0  0  0  0  0  0
   16.1650   61.8340   31.9600 C   0  0  0  0  0  0  0  0  0  0  0  0
   16.7280   60.6250   31.6210 O   0  0  0  0  0  0  0  0  0  0  0  0
   16.0680   59.8780   32.7030 C   0  0  0  0  0  0  0  0  0  0  0  0
   15.3280   60.6680   33.7420 O   0  0  0  0  0  0  0  0  0  0  0  0
   15.4270   61.9010   33.0840 C   0  0  0  0  0  0  0  0  0  0  0  0
   14.8400   63.0560   33.5400 C   0  0  0  0  0  0  0  0  0  0  0  0
   14.9910   64.2350   32.7710 C   0  0  0  0  0  0  0  0  0  0  0  0
   14.2690   65.3920   33.3690 C   0  0  0  0  0  0  0  0  0  0  0  0
   13.5430   66.1700   32.2860 C   0  0  0  0  0  0  0  0  0  0  0  0
   14.5270   67.1890   31.7340 N   0  0  2  0  0  0  0  0  0  0  0  0
   15.1680   67.4730   32.4320 H   0  0  0  0  0  0  0  0  0  0  0  0
   13.7240   68.3810   31.1200 C   0  0  0  0  0  0  0  0  0  0  0  0
   13.4960   67.9920   29.6660 C   0  0  0  0  0  0  0  0  0  0  0  0
   14.2190   66.6880   29.4120 C   0  0  0  0  0  0  0  0  0  0  0  0
   15.2740   66.7060   30.5260 C   0  0  2  0  0  0  0  0  0  0  0  0
   16.3320   67.7240   30.1560 C   0  0  0  0  0  0  0  0  0  0  0  0
   17.5750   67.1970   30.2420 C   0  0  1  0  0  0  0  0  0  0  0  0
   18.6870   67.9680   29.9750 O   0  0  0  0  0  0  0  0  0  0  0  0
   18.4200   69.3330   30.1470 C   0  0  0  0  0  0  0  0  0  0  0  0
   18.1140   65.7090   32.0050 O   0  0  0  0  0  0  0  0  0  0  0  0
   19.5140   65.5880   32.0490 C   0  0  0  0  0  0  0  0  0  0  0  0
   20.3240   66.4760   32.0160 O   0  0  0  0  0  0  0  0  0  0  0  0
   19.9010   64.0700   32.1900 C   0  0  2  0  0  0  0  0  0  0  0  0
   19.6130   63.2850   30.9690 O   0  0  0  0  0  0  0  0  0  0  0  0
   20.0680   62.4310   31.1030 H   0  0  0  0  0  0  0  0  0  0  0  0
   19.0740   63.4770   33.3290 C   0  0  0  0  0  0  0  0  0  0  0  0
   19.6320   62.0810   33.6890 C   0  0  0  0  0  0  0  0  0  0  0  0
   20.0030   61.8460   34.8430 O   0  0  0  0  0  0  0  0  0  0  0  0
   19.5910   61.2460   32.6250 O   0  0  0  0  0  0  0  0  0  0  0  0
   19.8750   59.8980   32.9990 C   0  0  0  0  0  0  0  0  0  0  0  0
   21.4310   63.9250   32.3090 C   0  0  0  0  0  0  0  0  0  0  0  0
   22.2360   64.1120   33.6090 C   0  0  0  0  0  0  0  0  0  0  0  0
   23.1900   62.9850   33.9900 C   0  0  0  0  0  0  0  0  0  0  0  0
   24.6200   63.4930   34.2480 C   0  0  0  0  0  0  0  0  0  0  0  0
   24.6690   65.0120   34.2220 C   0  0  0  0  0  0  0  0  0  0  0  0
   25.5870   62.9030   33.2390 C   0  0  0  0  0  0  0  0  0  0  0  0
   25.0010   63.0190   35.5350 O   0  0  0  0  0  0  0  0  0  0  0  0
   24.3600   63.3690   36.1690 H   0  0  0  0  0  0  0  0  0  0  0  0
  1 24  1  1  0  0  0
  2 19  1  1  0  0  0
  2  1  1  0  0  0  0
  2  3  1  0  0  0  0
  3 11  1  0  0  0  0
  4  3  2  0  0  0  0
  4  5  1  0  0  0  0
  5  9  2  0  0  0  0
  6  5  1  0  0  0  0
  6  7  1  0  0  0  0
  7  8  1  0  0  0  0
  9 10  1  0  0  0  0
  9  8  1  0  0  0  0
 11 12  1  0  0  0  0
 11 10  2  0  0  0  0
 13 12  1  0  0  0  0
 14 19  1  6  0  0  0
 14 13  1  0  0  0  0
 14 15  1  0  0  0  0
 16 14  1  0  0  0  0
 17 16  1  0  0  0  0
 18 17  1  0  0  0  0
 19 18  1  6  0  0  0
 20 21  1  0  0  0  0
 20 19  1  0  0  0  0
 21 22  1  1  0  0  0
 21  1  1  0  0  0  0
 22 23  1  0  0  0  0
 24 25  1  0  0  0  0
 25 27  1  0  0  0  0
 26 25  2  0  0  0  0
 27 35  1  1  0  0  0
 27 30  1  0  0  0  0
 28 29  1  0  0  0  0
 28 27  1  0  0  0  0
 30 31  1  0  0  0  0
 31 32  2  0  0  0  0
 33 34  1  0  0  0  0
 33 31  1  0  0  0  0
 35 36  1  0  0  0  0
 36 37  1  0  0  0  0
 37 38  1  0  0  0  0
 38 41  1  0  0  0  0
 39 38  1  0  0  0  0
 40 38  1  0  0  0  0
 41 42  1  0  0  0  0
M  END
>  <minimizedAffinity>
-6.92355871

$$$$

 OpenBabel12271915223D

 42 46  0  0  1  0  0  0  0  0999 V2000
   17.1620   65.7420   30.8540 C   0  0  1  0  0  0  0  0  0  0  0  0
   16.4860   67.2100   30.7220 C   0  0  1  0  0  0  0  0  0  0  0  0
   14.9440   67.1960   30.8750 C   0  0  0  0  0  0  0  0  0  0  0  0
   14.3230   66.5300   29.7870 C   0  0  0  0  0  0  0  0  0  0  0  0
   12.9030   66.3960   29.8180 C   0  0  0  0  0  0  0  0  0  0  0  0
   12.2210   65.7490   28.8140 O   0  0  0  0  0  0  0  0  0  0  0  0
   10.8880   66.0720   29.3480 C   0  0  0  0  0  0  0  0  0  0  0  0
   10.8170   66.6940   30.7100 O   0  0  0  0  0  0  0  0  0  0  0  0
   12.1960   66.8990   30.8470 C   0  0  0  0  0  0  0  0  0  0  0  0
   12.7670   67.5400   31.9200 C   0  0  0  0  0  0  0  0  0  0  0  0
   14.1730   67.7080   31.9310 C   0  0  0  0  0  0  0  0  0  0  0  0
   14.6400   68.4520   33.1340 C   0  0  0  0  0  0  0  0  0  0  0  0
   15.6860   69.4790   32.7390 C   0  0  0  0  0  0  0  0  0  0  0  0
   17.0340   68.7750   32.7660 N   0  0  2  0  0  0  0  0  0  0  0  0
   17.0400   68.0540   33.4440 H   0  0  0  0  0  0  0  0  0  0  0  0
   18.1530   69.8410   32.9960 C   0  0  0  0  0  0  0  0  0  0  0  0
   18.5540   70.2950   31.6000 C   0  0  0  0  0  0  0  0  0  0  0  0
   17.7850   69.4630   30.5980 C   0  0  0  0  0  0  0  0  0  0  0  0
   17.4460   68.2220   31.4350 C   0  0  2  0  0  0  0  0  0  0  0  0
   18.7130   67.4090   31.6050 C   0  0  0  0  0  0  0  0  0  0  0  0
   18.5160   66.1130   31.2720 C   0  0  1  0  0  0  0  0  0  0  0  0
   19.5390   65.1940   31.3850 O   0  0  0  0  0  0  0  0  0  0  0  0
   20.0510   65.1510   32.6890 C   0  0  0  0  0  0  0  0  0  0  0  0
   16.4860   65.0340   31.8470 O   0  0  0  0  0  0  0  0  0  0  0  0
   16.3090   63.6920   31.4710 C   0  0  0  0  0  0  0  0  0  0  0  0
   16.7680   63.1380   30.5070 O   0  0  0  0  0  0  0  0  0  0  0  0
   15.4180   62.9640   32.5440 C   0  0  2  0  0  0  0  0  0  0  0  0
   14.4780   61.9890   31.9480 O   0  0  0  0  0  0  0  0  0  0  0  0
   14.1340   61.4740   32.7030 H   0  0  0  0  0  0  0  0  0  0  0  0
   14.5910   64.0260   33.2660 C   0  0  0  0  0  0  0  0  0  0  0  0
   13.1730   63.4710   33.5320 C   0  0  0  0  0  0  0  0  0  0  0  0
   12.9740   62.7260   34.4960 O   0  0  0  0  0  0  0  0  0  0  0  0
   12.2810   63.9490   32.6320 O   0  0  0  0  0  0  0  0  0  0  0  0
   11.0090   64.1980   33.2290 C   0  0  0  0  0  0  0  0  0  0  0  0
   16.2960   62.0600   33.4320 C   0  0  0  0  0  0  0  0  0  0  0  0
   17.8360   62.0400   33.4220 C   0  0  0  0  0  0  0  0  0  0  0  0
   18.5000   60.9140   32.6380 C   0  0  0  0  0  0  0  0  0  0  0  0
   20.0360   60.9720   32.7210 C   0  0  0  0  0  0  0  0  0  0  0  0
   20.4840   61.7120   33.9720 C   0  0  0  0  0  0  0  0  0  0  0  0
   20.6140   61.6160   31.4750 C   0  0  0  0  0  0  0  0  0  0  0  0
   20.4990   59.6270   32.7640 O   0  0  0  0  0  0  0  0  0  0  0  0
   20.0980   59.2130   33.5400 H   0  0  0  0  0  0  0  0  0  0  0  0
  1 21  1  0  0  0  0
  1 24  1  1  0  0  0
  2  1  1  0  0  0  0
  2  3  1  0  0  0  0
  2 19  1  1  0  0  0
  3 11  1  0  0  0  0
  4  5  1  0  0  0  0
  4  3  2  0  0  0  0
  5  9  2  0  0  0  0
  6  7  1  0  0  0  0
  6  5  1  0  0  0  0
  7  8  1  0  0  0  0
  8  9  1  0  0  0  0
  9 10  1  0  0  0  0
 10 11  2  0  0  0  0
 11 12  1  0  0  0  0
 13 14  1  0  0  0  0
 13 12  1  0  0  0  0
 14 19  1  6  0  0  0
 14 16  1  0  0  0  0
 14 15  1  0  0  0  0
 17 16  1  0  0  0  0
 18 17  1  0  0  0  0
 19 18  1  6  0  0  0
 19 20  1  0  0  0  0
 21 22  1  1  0  0  0
 21 20  1  0  0  0  0
 22 23  1  0  0  0  0
 25 24  1  0  0  0  0
 25 27  1  0  0  0  0
 26 25  2  0  0  0  0
 27 30  1  1  0  0  0
 27 35  1  0  0  0  0
 28 27  1  0  0  0  0
 28 29  1  0  0  0  0
 30 31  1  0  0  0  0
 31 32  2  0  0  0  0
 33 34  1  0  0  0  0
 33 31  1  0  0  0  0
 36 35  1  0  0  0  0
 37 38  1  0  0  0  0
 37 36  1  0  0  0  0
 38 41  1  0  0  0  0
 38 39  1  0  0  0  0
 40 38  1  0  0  0  0
 41 42  1  0  0  0  0
M  END
>  <minimizedAffinity>
-6.91843033

$$$$

 OpenBabel12271915223D

 42 46  0  0  1  0  0  0  0  0999 V2000
   15.8110   58.9850   33.4270 C   0  0  1  0  0  0  0  0  0  0  0  0
   14.3820   58.4370   33.9610 C   0  0  1  0  0  0  0  0  0  0  0  0
   13.3770   59.5640   34.3050 C   0  0  0  0  0  0  0  0  0  0  0  0
   13.8030   60.3100   35.4340 C   0  0  0  0  0  0  0  0  0  0  0  0
   12.9980   61.4160   35.8370 C   0  0  0  0  0  0  0  0  0  0  0  0
   13.3450   62.2040   36.9100 O   0  0  0  0  0  0  0  0  0  0  0  0
   12.1110   63.0060   36.8750 C   0  0  0  0  0  0  0  0  0  0  0  0
   11.1960   62.8210   35.7010 O   0  0  0  0  0  0  0  0  0  0  0  0
   11.8730   61.7190   35.1620 C   0  0  0  0  0  0  0  0  0  0  0  0
   11.4380   61.0240   34.0600 C   0  0  0  0  0  0  0  0  0  0  0  0
   12.1970   59.9090   33.6260 C   0  0  0  0  0  0  0  0  0  0  0  0
   11.5830   59.2360   32.4480 C   0  0  0  0  0  0  0  0  0  0  0  0
   11.6310   57.7290   32.6250 C   0  0  0  0  0  0  0  0  0  0  0  0
   12.9700   57.2600   32.0780 N   0  0  2  0  0  0  0  0  0  0  0  0
   13.2750   57.8470   31.3430 H   0  0  0  0  0  0  0  0  0  0  0  0
   12.8410   55.7620   31.6500 C   0  0  0  0  0  0  0  0  0  0  0  0
   13.2060   54.9660   32.8950 C   0  0  0  0  0  0  0  0  0  0  0  0
   13.6310   55.9440   33.9680 C   0  0  0  0  0  0  0  0  0  0  0  0
   14.0410   57.1580   33.1230 C   0  0  2  0  0  0  0  0  0  0  0  0
   15.3620   56.8410   32.4530 C   0  0  0  0  0  0  0  0  0  0  0  0
   16.2660   57.8260   32.6550 C   0  0  1  0  0  0  0  0  0  0  0  0
   17.5270   57.7480   32.1010 O   0  0  0  0  0  0  0  0  0  0  0  0
   18.5000   57.4790   33.0740 C   0  0  0  0  0  0  0  0  0  0  0  0
   15.5800   60.0940   32.6130 O   0  0  0  0  0  0  0  0  0  0  0  0
   16.6460   61.0060   32.6970 C   0  0  0  0  0  0  0  0  0  0  0  0
   17.8080   60.7540   32.8850 O   0  0  0  0  0  0  0  0  0  0  0  0
   16.1040   62.4640   32.4690 C   0  0  2  0  0  0  0  0  0  0  0  0
   16.5790   63.4230   33.4900 O   0  0  0  0  0  0  0  0  0  0  0  0
   16.3470   64.3050   33.1390 H   0  0  0  0  0  0  0  0  0  0  0  0
   14.5790   62.4160   32.5500 C   0  0  0  0  0  0  0  0  0  0  0  0
   14.0380   63.8440   32.7900 C   0  0  0  0  0  0  0  0  0  0  0  0
   13.6210   64.5120   31.8390 O   0  0  0  0  0  0  0  0  0  0  0  0
   14.0600   64.1650   34.1050 O   0  0  0  0  0  0  0  0  0  0  0  0
   13.4670   65.4390   34.3490 C   0  0  0  0  0  0  0  0  0  0  0  0
   16.7010   63.0530   31.1760 C   0  0  0  0  0  0  0  0  0  0  0  0
   17.7900   64.1410   31.1230 C   0  0  0  0  0  0  0  0  0  0  0  0
   19.2280   63.6790   31.3250 C   0  0  0  0  0  0  0  0  0  0  0  0
   19.9690   64.5200   32.3800 C   0  0  0  0  0  0  0  0  0  0  0  0
   19.7740   66.0060   32.1240 C   0  0  0  0  0  0  0  0  0  0  0  0
   21.4440   64.1640   32.4080 C   0  0  0  0  0  0  0  0  0  0  0  0
   19.4200   64.1720   33.6460 O   0  0  0  0  0  0  0  0  0  0  0  0
   18.4740   64.3670   33.6090 H   0  0  0  0  0  0  0  0  0  0  0  0
  1 24  1  6  0  0  0
  1  2  1  0  0  0  0
  2 19  1  6  0  0  0
  2  3  1  0  0  0  0
  3  4  2  0  0  0  0
  4  5  1  0  0  0  0
  5  6  1  0  0  0  0
  7  6  1  0  0  0  0
  8  7  1  0  0  0  0
  9  8  1  0  0  0  0
  9  5  2  0  0  0  0
 10  9  1  0  0  0  0
 11 10  2  0  0  0  0
 11  3  1  0  0  0  0
 12 13  1  0  0  0  0
 12 11  1  0  0  0  0
 14 13  1  0  0  0  0
 14 19  1  1  0  0  0
 15 14  1  0  0  0  0
 16 14  1  0  0  0  0
 16 17  1  0  0  0  0
 17 18  1  0  0  0  0
 19 20  1  6  0  0  0
 19 18  1  0  0  0  0
 20 21  1  0  0  0  0
 21 22  1  6  0  0  0
 21  1  1  0  0  0  0
 22 23  1  0  0  0  0
 24 25  1  0  0  0  0
 25 26  2  0  0  0  0
 27 35  1  6  0  0  0
 27 30  1  0  0  0  0
 27 25  1  0  0  0  0
 27 28  1  0  0  0  0
 29 28  1  0  0  0  0
 30 31  1  0  0  0  0
 31 33  1  0  0  0  0
 32 31  2  0  0  0  0
 33 34  1  0  0  0  0
 36 35  1  0  0  0  0
 36 37  1  0  0  0  0
 37 38  1  0  0  0  0
 38 40  1  0  0  0  0
 38 41  1  0  0  0  0
 39 38  1  0  0  0  0
 42 41  1  0  0  0  0
M  END
>  <minimizedAffinity>
-6.84045029

$$$$

 OpenBabel12271915223D

 42 46  0  0  1  0  0  0  0  0999 V2000
   17.1770   67.1240   30.5620 C   0  0  1  0  0  0  0  0  0  0  0  0
   16.0450   68.1610   31.0830 C   0  0  1  0  0  0  0  0  0  0  0  0
   15.0220   67.5230   32.0550 C   0  0  0  0  0  0  0  0  0  0  0  0
   14.2090   66.5660   31.3940 C   0  0  0  0  0  0  0  0  0  0  0  0
   13.2510   65.8580   32.1790 C   0  0  0  0  0  0  0  0  0  0  0  0
   12.4330   64.9010   31.6240 O   0  0  0  0  0  0  0  0  0  0  0  0
   11.6490   64.6870   32.8510 C   0  0  0  0  0  0  0  0  0  0  0  0
   12.1370   65.3410   34.1100 O   0  0  0  0  0  0  0  0  0  0  0  0
   13.1330   66.1110   33.4970 C   0  0  0  0  0  0  0  0  0  0  0  0
   13.9120   67.0220   34.1680 C   0  0  0  0  0  0  0  0  0  0  0  0
   14.8700   67.7590   33.4310 C   0  0  0  0  0  0  0  0  0  0  0  0
   15.6080   68.7310   34.2840 C   0  0  0  0  0  0  0  0  0  0  0  0
   15.7420   70.0610   33.5630 C   0  0  0  0  0  0  0  0  0  0  0  0
   17.0050   69.9850   32.7200 N   0  0  2  0  0  0  0  0  0  0  0  0
   17.6750   69.3950   33.1440 H   0  0  0  0  0  0  0  0  0  0  0  0
   17.5330   71.4350   32.4750 C   0  0  0  0  0  0  0  0  0  0  0  0
   16.8490   71.8900   31.1940 C   0  0  0  0  0  0  0  0  0  0  0  0
   16.0420   70.7300   30.6560 C   0  0  0  0  0  0  0  0  0  0  0  0
   16.7560   69.5390   31.3100 C   0  0  2  0  0  0  0  0  0  0  0  0
   18.0840   69.3440   30.6080 C   0  0  0  0  0  0  0  0  0  0  0  0
   18.2530   68.0590   30.2200 C   0  0  1  0  0  0  0  0  0  0  0  0
   19.4130   67.6600   29.5890 O   0  0  0  0  0  0  0  0  0  0  0  0
   19.6470   68.4070   28.4260 C   0  0  0  0  0  0  0  0  0  0  0  0
   17.5300   66.2900   31.6220 O   0  0  0  0  0  0  0  0  0  0  0  0
   17.5210   64.9430   31.2220 C   0  0  0  0  0  0  0  0  0  0  0  0
   16.7750   64.4210   30.4350 O   0  0  0  0  0  0  0  0  0  0  0  0
   18.6880   64.1770   31.9450 C   0  0  2  0  0  0  0  0  0  0  0  0
   19.3700   63.2010   31.0650 O   0  0  0  0  0  0  0  0  0  0  0  0
   20.1780   62.9430   31.5500 H   0  0  0  0  0  0  0  0  0  0  0  0
   18.0870   63.4040   33.1180 C   0  0  0  0  0  0  0  0  0  0  0  0
   18.5760   61.9380   33.0640 C   0  0  0  0  0  0  0  0  0  0  0  0
   18.0470   61.1410   32.2840 O   0  0  0  0  0  0  0  0  0  0  0  0
   19.6160   61.7350   33.9070 O   0  0  0  0  0  0  0  0  0  0  0  0
   19.5840   62.6350   35.0140 C   0  0  0  0  0  0  0  0  0  0  0  0
   19.8310   65.1540   32.2840 C   0  0  0  0  0  0  0  0  0  0  0  0
   21.3280   64.8750   32.0530 C   0  0  0  0  0  0  0  0  0  0  0  0
   22.1910   64.7040   33.2970 C   0  0  0  0  0  0  0  0  0  0  0  0
   23.6870   64.9130   33.0040 C   0  0  0  0  0  0  0  0  0  0  0  0
   24.5050   64.8470   34.2830 C   0  0  0  0  0  0  0  0  0  0  0  0
   23.9120   66.2310   32.2850 C   0  0  0  0  0  0  0  0  0  0  0  0
   24.0860   63.8700   32.1210 O   0  0  0  0  0  0  0  0  0  0  0  0
   23.9060   63.0330   32.5700 H   0  0  0  0  0  0  0  0  0  0  0  0
  1  2  1  0  0  0  0
  1 24  1  1  0  0  0
  2 19  1  1  0  0  0
  2  3  1  0  0  0  0
  3 11  1  0  0  0  0
  4  3  2  0  0  0  0
  4  5  1  0  0  0  0
  5  9  2  0  0  0  0
  6  5  1  0  0  0  0
  6  7  1  0  0  0  0
  7  8  1  0  0  0  0
  9  8  1  0  0  0  0
  9 10  1  0  0  0  0
 11 10  2  0  0  0  0
 11 12  1  0  0  0  0
 13 12  1  0  0  0  0
 14 19  1  6  0  0  0
 14 15  1  0  0  0  0
 14 13  1  0  0  0  0
 16 14  1  0  0  0  0
 17 16  1  0  0  0  0
 18 17  1  0  0  0  0
 18 19  1  0  0  0  0
 19 20  1  6  0  0  0
 21 22  1  1  0  0  0
 21  1  1  0  0  0  0
 21 20  1  0  0  0  0
 23 22  1  0  0  0  0
 25 24  1  0  0  0  0
 25 27  1  0  0  0  0
 26 25  2  0  0  0  0
 27 35  1  1  0  0  0
 27 30  1  0  0  0  0
 28 29  1  0  0  0  0
 28 27  1  0  0  0  0
 31 30  1  0  0  0  0
 31 33  1  0  0  0  0
 32 31  2  0  0  0  0
 33 34  1  0  0  0  0
 36 35  1  0  0  0  0
 36 37  1  0  0  0  0
 38 37  1  0  0  0  0
 38 39  1  0  0  0  0
 40 38  1  0  0  0  0
 41 42  1  0  0  0  0
 41 38  1  0  0  0  0
M  END
>  <minimizedAffinity>
-6.71399736

$$$$

 OpenBabel12271915223D

 42 46  0  0  1  0  0  0  0  0999 V2000
   16.0420   68.2720   30.3970 C   0  0  1  0  0  0  0  0  0  0  0  0
   15.1890   66.9480   30.0130 C   0  0  1  0  0  0  0  0  0  0  0  0
   15.5380   65.7140   30.8820 C   0  0  0  0  0  0  0  0  0  0  0  0
   16.8550   65.2550   30.6210 C   0  0  0  0  0  0  0  0  0  0  0  0
   17.3340   64.1510   31.3870 C   0  0  0  0  0  0  0  0  0  0  0  0
   18.6040   63.6520   31.2110 O   0  0  0  0  0  0  0  0  0  0  0  0
   18.4170   62.5200   32.1340 C   0  0  0  0  0  0  0  0  0  0  0  0
   17.1650   62.4970   32.9600 O   0  0  0  0  0  0  0  0  0  0  0  0
   16.5460   63.5740   32.3140 C   0  0  0  0  0  0  0  0  0  0  0  0
   15.2710   64.0020   32.5980 C   0  0  0  0  0  0  0  0  0  0  0  0
   14.7450   65.0870   31.8570 C   0  0  0  0  0  0  0  0  0  0  0  0
   13.3450   65.4100   32.2500 C   0  0  0  0  0  0  0  0  0  0  0  0
   12.5030   65.6670   31.0130 C   0  0  0  0  0  0  0  0  0  0  0  0
   12.6490   67.1430   30.6750 N   0  0  2  0  0  0  0  0  0  0  0  0
   12.8000   67.6780   31.4920 H   0  0  0  0  0  0  0  0  0  0  0  0
   11.3910   67.6000   29.8690 C   0  0  0  0  0  0  0  0  0  0  0  0
   11.7490   67.3520   28.4100 C   0  0  0  0  0  0  0  0  0  0  0  0
   13.1830   66.8740   28.3550 C   0  0  0  0  0  0  0  0  0  0  0  0
   13.7340   67.4230   29.6780 C   0  0  2  0  0  0  0  0  0  0  0  0
   13.9010   68.9210   29.5330 C   0  0  0  0  0  0  0  0  0  0  0  0
   15.1390   69.3170   29.9100 C   0  0  1  0  0  0  0  0  0  0  0  0
   15.4890   70.6510   29.8830 O   0  0  0  0  0  0  0  0  0  0  0  0
   14.4330   71.4520   29.4250 C   0  0  0  0  0  0  0  0  0  0  0  0
   16.1890   68.3150   31.7820 O   0  0  0  0  0  0  0  0  0  0  0  0
   17.4230   68.8870   32.1370 C   0  0  0  0  0  0  0  0  0  0  0  0
   18.5160   68.5480   31.7670 O   0  0  0  0  0  0  0  0  0  0  0  0
   17.1750   70.1070   33.0970 C   0  0  2  0  0  0  0  0  0  0  0  0
   16.3850   71.1870   32.4660 O   0  0  0  0  0  0  0  0  0  0  0  0
   16.1340   71.7810   33.2010 H   0  0  0  0  0  0  0  0  0  0  0  0
   18.5350   70.6880   33.4790 C   0  0  0  0  0  0  0  0  0  0  0  0
   18.7170   72.0560   32.7820 C   0  0  0  0  0  0  0  0  0  0  0  0
   19.2660   72.1160   31.6790 O   0  0  0  0  0  0  0  0  0  0  0  0
   18.1720   73.0570   33.5130 O   0  0  0  0  0  0  0  0  0  0  0  0
   18.2440   74.3090   32.8330 C   0  0  0  0  0  0  0  0  0  0  0  0
   16.2610   69.6830   34.2640 C   0  0  0  0  0  0  0  0  0  0  0  0
   15.9630   70.5410   35.5080 C   0  0  0  0  0  0  0  0  0  0  0  0
   14.5290   71.0300   35.6740 C   0  0  0  0  0  0  0  0  0  0  0  0
   14.3490   72.4830   35.1990 C   0  0  0  0  0  0  0  0  0  0  0  0
   13.7040   73.3310   36.2830 C   0  0  0  0  0  0  0  0  0  0  0  0
   13.5370   72.5300   33.9190 C   0  0  0  0  0  0  0  0  0  0  0  0
   15.6480   72.9850   34.9020 O   0  0  0  0  0  0  0  0  0  0  0  0
   16.1710   72.9180   35.7130 H   0  0  0  0  0  0  0  0  0  0  0  0
  1 24  1  1  0  0  0
  2 19  1  1  0  0  0
  2  1  1  0  0  0  0
  2  3  1  0  0  0  0
  3 11  1  0  0  0  0
  4  3  2  0  0  0  0
  4  5  1  0  0  0  0
  5  9  2  0  0  0  0
  6  5  1  0  0  0  0
  6  7  1  0  0  0  0
  7  8  1  0  0  0  0
  9 10  1  0  0  0  0
  9  8  1  0  0  0  0
 11 12  1  0  0  0  0
 11 10  2  0  0  0  0
 13 12  1  0  0  0  0
 14 19  1  6  0  0  0
 14 13  1  0  0  0  0
 14 15  1  0  0  0  0
 16 14  1  0  0  0  0
 17 16  1  0  0  0  0
 18 17  1  0  0  0  0
 19 18  1  6  0  0  0
 20 19  1  0  0  0  0
 20 21  1  0  0  0  0
 21 22  1  1  0  0  0
 21  1  1  0  0  0  0
 23 22  1  0  0  0  0
 24 25  1  0  0  0  0
 25 27  1  0  0  0  0
 26 25  2  0  0  0  0
 27 30  1  1  0  0  0
 27 35  1  0  0  0  0
 28 27  1  0  0  0  0
 28 29  1  0  0  0  0
 31 30  1  0  0  0  0
 31 33  1  0  0  0  0
 32 31  2  0  0  0  0
 34 33  1  0  0  0  0
 35 36  1  0  0  0  0
 36 37  1  0  0  0  0
 38 37  1  0  0  0  0
 38 39  1  0  0  0  0
 40 38  1  0  0  0  0
 41 38  1  0  0  0  0
 41 42  1  0  0  0  0
M  END
>  <minimizedAffinity>
-6.68480062

$$$$
