
 OpenBabel12271915113D

 42 46  0  0  1  0  0  0  0  0999 V2000
   21.3490   62.6490   32.6360 C   0  0  1  0  0  0  0  0  0  0  0  0
   22.8970   63.0490   32.4210 C   0  0  1  0  0  0  0  0  0  0  0  0
   23.3360   64.5440   32.1040 C   0  0  0  0  0  0  0  0  0  0  0  0
   22.3260   65.4910   32.0130 C   0  0  0  0  0  0  0  0  0  0  0  0
   22.7280   66.7950   31.8670 C   0  0  0  0  0  0  0  0  0  0  0  0
   21.8180   67.8990   31.7760 O   0  0  0  0  0  0  0  0  0  0  0  0
   22.8710   68.9030   31.8690 C   0  0  0  0  0  0  0  0  0  0  0  0
   24.2400   68.5520   31.6850 O   0  0  0  0  0  0  0  0  0  0  0  0
   24.0570   67.2010   31.7970 C   0  0  0  0  0  0  0  0  0  0  0  0
   25.1090   66.2870   31.8790 C   0  0  0  0  0  0  0  0  0  0  0  0
   24.7260   64.9460   32.0380 C   0  0  0  0  0  0  0  0  0  0  0  0
   25.8980   63.9930   32.2430 C   0  0  0  0  0  0  0  0  0  0  0  0
   25.7740   62.8980   33.3090 C   0  0  0  0  0  0  0  0  0  0  0  0
   24.7160   63.1950   34.3250 N   0  0  2  0  0  0  0  0  0  0  0  0
   24.6130   64.2090   34.4700 H   0  0  0  0  0  0  0  0  0  0  0  0
   24.9890   62.5060   35.6350 C   0  0  0  0  0  0  0  0  0  0  0  0
   24.5170   61.0690   35.3270 C   0  0  0  0  0  0  0  0  0  0  0  0
   23.4900   61.1570   34.2030 C   0  0  0  0  0  0  0  0  0  0  0  0
   23.3640   62.6760   33.9400 C   0  0  2  0  0  0  0  0  0  0  0  0
   22.1740   63.2710   34.7300 C   0  0  0  0  0  0  0  0  0  0  0  0
   21.0360   63.3470   33.9870 C   0  0  2  0  0  0  0  0  0  0  0  0
   19.8090   63.4950   34.5810 O   0  0  0  0  0  0  0  0  0  0  0  0
   19.6050   62.5910   35.6270 C   0  0  0  0  0  0  0  0  0  0  0  0
   20.4730   62.9870   31.5110 O   0  0  0  0  0  0  0  0  0  0  0  0
   19.1740   62.5310   31.7330 C   0  0  0  0  0  0  0  0  0  0  0  0
   18.9750   61.3390   31.9360 O   0  0  0  0  0  0  0  0  0  0  0  0
   18.1200   63.6340   31.7710 C   0  0  2  0  0  0  0  0  0  0  0  0
   17.5720   63.7090   33.0760 O   0  0  0  0  0  0  0  0  0  0  0  0
   17.3670   62.8410   33.3760 H   0  0  0  0  0  0  0  0  0  0  0  0
   16.9190   63.4950   30.8380 C   0  0  0  0  0  0  0  0  0  0  0  0
   15.7740   62.9750   31.6750 C   0  0  0  0  0  0  0  0  0  0  0  0
   15.6300   61.8210   31.9770 O   0  0  0  0  0  0  0  0  0  0  0  0
   15.0430   64.0180   32.1590 O   0  0  0  0  0  0  0  0  0  0  0  0
   14.0030   63.6420   33.0430 C   0  0  0  0  0  0  0  0  0  0  0  0
   18.8440   65.0130   31.5010 C   0  0  0  0  0  0  0  0  0  0  0  0
   17.8500   66.0930   31.1120 C   0  0  0  0  0  0  0  0  0  0  0  0
   18.0120   67.4300   31.7830 C   0  0  0  0  0  0  0  0  0  0  0  0
   18.3860   68.6040   30.8920 C   0  0  0  0  0  0  0  0  0  0  0  0
   17.1780   69.4510   30.5170 C   0  0  0  0  0  0  0  0  0  0  0  0
   18.9650   68.0460   29.5540 C   0  0  0  0  0  0  0  0  0  0  0  0
   19.3550   69.4070   31.5120 O   0  0  0  0  0  0  0  0  0  0  0  0
   19.9580   68.8980   32.0110 H   0  0  0  0  0  0  0  0  0  0  0  0
  1 24  1  6  0  0  0
  1 21  1  0  0  0  0
  2  1  1  0  0  0  0
  2 19  1  1  0  0  0
  3  2  1  0  0  0  0
  4  3  2  0  0  0  0
  5  4  1  0  0  0  0
  6  5  1  0  0  0  0
  6  7  1  0  0  0  0
  8  9  1  0  0  0  0
  8  7  1  0  0  0  0
  9  5  2  0  0  0  0
  9 10  1  0  0  0  0
 10 11  2  0  0  0  0
 11  3  1  0  0  0  0
 11 12  1  0  0  0  0
 12 13  1  0  0  0  0
 13 14  1  0  0  0  0
 14 19  1  6  0  0  0
 14 15  1  0  0  0  0
 14 16  1  0  0  0  0
 17 16  1  0  0  0  0
 18 17  1  0  0  0  0
 19 18  1  1  0  0  0
 19 20  1  0  0  0  0
 21 22  1  1  0  0  0
 21 20  1  0  0  0  0
 22 23  1  0  0  0  0
 24 25  1  0  0  0  0
 25 27  1  0  0  0  0
 25 26  2  0  0  0  0
 27 30  1  6  0  0  0
 27 28  1  0  0  0  0
 28 29  1  0  0  0  0
 30 31  1  0  0  0  0
 31 32  2  0  0  0  0
 31 33  1  0  0  0  0
 33 34  1  0  0  0  0
 35 27  1  0  0  0  0
 36 35  1  0  0  0  0
 36 37  1  0  0  0  0
 38 41  1  0  0  0  0
 38 37  1  0  0  0  0
 39 38  1  0  0  0  0
 40 38  1  0  0  0  0
 41 42  1  0  0  0  0
M  END
>  <minimizedAffinity>
-8.44833374

$$$$

 OpenBabel12271915113D

 42 46  0  0  1  0  0  0  0  0999 V2000
   17.5730   66.2450   31.2420 C   0  0  1  0  0  0  0  0  0  0  0  0
   16.4630   66.9340   32.1880 C   0  0  1  0  0  0  0  0  0  0  0  0
   16.7370   68.3150   32.9260 C   0  0  0  0  0  0  0  0  0  0  0  0
   17.9780   68.9010   32.7240 C   0  0  0  0  0  0  0  0  0  0  0  0
   18.1530   70.1530   33.2610 C   0  0  0  0  0  0  0  0  0  0  0  0
   19.3650   70.9080   33.1310 O   0  0  0  0  0  0  0  0  0  0  0  0
   18.7850   72.1220   33.6940 C   0  0  0  0  0  0  0  0  0  0  0  0
   17.5480   72.0860   34.4020 O   0  0  0  0  0  0  0  0  0  0  0  0
   17.1810   70.8370   33.9840 C   0  0  0  0  0  0  0  0  0  0  0  0
   15.9180   70.2880   34.2180 C   0  0  0  0  0  0  0  0  0  0  0  0
   15.7090   69.0120   33.6720 C   0  0  0  0  0  0  0  0  0  0  0  0
   14.2840   68.4980   33.8440 C   0  0  0  0  0  0  0  0  0  0  0  0
   13.6120   67.7940   32.6590 C   0  0  0  0  0  0  0  0  0  0  0  0
   14.2600   68.1160   31.3490 N   0  0  2  0  0  0  0  0  0  0  0  0
   14.6590   69.0650   31.3550 H   0  0  0  0  0  0  0  0  0  0  0  0
   13.3030   67.9600   30.1980 C   0  0  0  0  0  0  0  0  0  0  0  0
   13.3050   66.4290   30.0060 C   0  0  0  0  0  0  0  0  0  0  0  0
   14.6270   65.9020   30.5530 C   0  0  0  0  0  0  0  0  0  0  0  0
   15.3760   67.1820   30.9960 C   0  0  2  0  0  0  0  0  0  0  0  0
   16.3260   67.6730   29.8780 C   0  0  0  0  0  0  0  0  0  0  0  0
   17.6020   67.2260   30.0390 C   0  0  2  0  0  0  0  0  0  0  0  0
   18.4950   67.2390   28.9990 O   0  0  0  0  0  0  0  0  0  0  0  0
   19.4150   68.2870   29.0910 C   0  0  0  0  0  0  0  0  0  0  0  0
   18.8560   65.9850   31.9000 O   0  0  0  0  0  0  0  0  0  0  0  0
   19.1860   64.6320   31.8390 C   0  0  0  0  0  0  0  0  0  0  0  0
   18.4910   63.8660   31.1820 O   0  0  0  0  0  0  0  0  0  0  0  0
   20.4740   64.2670   32.5700 C   0  0  2  0  0  0  0  0  0  0  0  0
   21.0980   63.1840   31.9030 O   0  0  0  0  0  0  0  0  0  0  0  0
   20.4530   62.5250   31.7120 H   0  0  0  0  0  0  0  0  0  0  0  0
   20.3590   63.8280   34.0280 C   0  0  0  0  0  0  0  0  0  0  0  0
   20.5410   62.3290   34.0480 C   0  0  0  0  0  0  0  0  0  0  0  0
   21.5680   61.7790   34.3410 O   0  0  0  0  0  0  0  0  0  0  0  0
   19.3410   61.7140   33.8500 O   0  0  0  0  0  0  0  0  0  0  0  0
   19.3950   60.5910   32.9900 C   0  0  0  0  0  0  0  0  0  0  0  0
   21.4630   65.4960   32.4640 C   0  0  0  0  0  0  0  0  0  0  0  0
   22.8760   65.0450   32.1410 C   0  0  0  0  0  0  0  0  0  0  0  0
   23.7780   64.7660   33.3130 C   0  0  0  0  0  0  0  0  0  0  0  0
   24.5550   63.4600   33.2860 C   0  0  0  0  0  0  0  0  0  0  0  0
   24.9390   62.9890   34.6820 C   0  0  0  0  0  0  0  0  0  0  0  0
   25.8930   63.6940   32.5170 C   0  0  0  0  0  0  0  0  0  0  0  0
   23.8190   62.4600   32.6330 O   0  0  0  0  0  0  0  0  0  0  0  0
   23.3240   62.8040   31.9210 H   0  0  0  0  0  0  0  0  0  0  0  0
  1 24  1  1  0  0  0
  1  2  1  0  0  0  0
  2 19  1  6  0  0  0
  2  3  1  0  0  0  0
  3 11  1  0  0  0  0
  4  3  2  0  0  0  0
  4  5  1  0  0  0  0
  5  9  2  0  0  0  0
  6  5  1  0  0  0  0
  6  7  1  0  0  0  0
  7  8  1  0  0  0  0
  9 10  1  0  0  0  0
  9  8  1  0  0  0  0
 11 12  1  0  0  0  0
 11 10  2  0  0  0  0
 13 12  1  0  0  0  0
 14 19  1  6  0  0  0
 14 15  1  0  0  0  0
 14 13  1  0  0  0  0
 16 14  1  0  0  0  0
 17 16  1  0  0  0  0
 17 18  1  0  0  0  0
 18 19  1  0  0  0  0
 19 20  1  6  0  0  0
 20 21  1  0  0  0  0
 21 22  1  6  0  0  0
 21  1  1  0  0  0  0
 22 23  1  0  0  0  0
 25 24  1  0  0  0  0
 25 27  1  0  0  0  0
 26 25  2  0  0  0  0
 27 35  1  6  0  0  0
 27 30  1  0  0  0  0
 28 27  1  0  0  0  0
 29 28  1  0  0  0  0
 30 31  1  0  0  0  0
 31 32  2  0  0  0  0
 33 31  1  0  0  0  0
 34 33  1  0  0  0  0
 36 35  1  0  0  0  0
 36 37  1  0  0  0  0
 38 37  1  0  0  0  0
 38 39  1  0  0  0  0
 40 38  1  0  0  0  0
 41 38  1  0  0  0  0
 42 41  1  0  0  0  0
M  END
>  <minimizedAffinity>
-7.47297144

$$$$

 OpenBabel12271915113D

 42 46  0  0  1  0  0  0  0  0999 V2000
   13.4720   61.5630   34.1860 C   0  0  1  0  0  0  0  0  0  0  0  0
   12.8220   60.4210   33.2500 C   0  0  1  0  0  0  0  0  0  0  0  0
   13.4570   58.9670   33.1450 C   0  0  0  0  0  0  0  0  0  0  0  0
   14.6020   58.7250   33.8900 C   0  0  0  0  0  0  0  0  0  0  0  0
   15.0640   57.4320   33.8910 C   0  0  0  0  0  0  0  0  0  0  0  0
   16.2210   57.0050   34.6210 O   0  0  0  0  0  0  0  0  0  0  0  0
   15.9840   55.5900   34.3640 C   0  0  0  0  0  0  0  0  0  0  0  0
   15.0670   55.1700   33.3560 O   0  0  0  0  0  0  0  0  0  0  0  0
   14.4650   56.3870   33.1940 C   0  0  0  0  0  0  0  0  0  0  0  0
   13.3150   56.5810   32.4260 C   0  0  0  0  0  0  0  0  0  0  0  0
   12.8160   57.8920   32.4160 C   0  0  0  0  0  0  0  0  0  0  0  0
   11.4960   58.0400   31.6670 C   0  0  0  0  0  0  0  0  0  0  0  0
   10.3960   58.9110   32.2870 C   0  0  0  0  0  0  0  0  0  0  0  0
   10.5830   59.1230   33.7570 N   0  0  2  0  0  0  0  0  0  0  0  0
   11.0450   58.3130   34.1930 H   0  0  0  0  0  0  0  0  0  0  0  0
    9.2790   59.4160   34.4490 C   0  0  0  0  0  0  0  0  0  0  0  0
    9.0750   60.9040   34.0980 C   0  0  0  0  0  0  0  0  0  0  0  0
   10.4500   61.5000   33.8180 C   0  0  0  0  0  0  0  0  0  0  0  0
   11.4200   60.3220   34.0800 C   0  0  2  0  0  0  0  0  0  0  0  0
   11.9700   60.3790   35.5250 C   0  0  0  0  0  0  0  0  0  0  0  0
   13.1770   61.0040   35.6030 C   0  0  2  0  0  0  0  0  0  0  0  0
   13.6560   61.4740   36.7980 O   0  0  0  0  0  0  0  0  0  0  0  0
   12.7210   62.2540   37.4840 C   0  0  0  0  0  0  0  0  0  0  0  0
   14.8740   61.8680   33.8860 O   0  0  0  0  0  0  0  0  0  0  0  0
   14.9760   62.7490   32.8100 C   0  0  0  0  0  0  0  0  0  0  0  0
   13.9880   63.3700   32.4370 O   0  0  0  0  0  0  0  0  0  0  0  0
   16.3880   62.8940   32.2500 C   0  0  2  0  0  0  0  0  0  0  0  0
   16.4880   62.1610   31.0420 O   0  0  0  0  0  0  0  0  0  0  0  0
   16.1070   61.3090   31.1650 H   0  0  0  0  0  0  0  0  0  0  0  0
   17.5450   62.4020   33.1170 C   0  0  0  0  0  0  0  0  0  0  0  0
   18.1800   61.2450   32.3810 C   0  0  0  0  0  0  0  0  0  0  0  0
   19.2520   61.2980   31.8420 O   0  0  0  0  0  0  0  0  0  0  0  0
   17.4390   60.1160   32.5640 O   0  0  0  0  0  0  0  0  0  0  0  0
   18.1520   58.9100   32.3630 C   0  0  0  0  0  0  0  0  0  0  0  0
   16.6150   64.4140   31.8790 C   0  0  0  0  0  0  0  0  0  0  0  0
   17.9040   64.6080   31.1030 C   0  0  0  0  0  0  0  0  0  0  0  0
   18.9650   65.4520   31.7590 C   0  0  0  0  0  0  0  0  0  0  0  0
   18.8550   66.9570   31.5750 C   0  0  0  0  0  0  0  0  0  0  0  0
   18.3010   67.3320   30.2080 C   0  0  0  0  0  0  0  0  0  0  0  0
   20.2880   67.5710   31.6530 C   0  0  0  0  0  0  0  0  0  0  0  0
   18.0590   67.5220   32.5820 O   0  0  0  0  0  0  0  0  0  0  0  0
   18.1760   67.0880   33.4000 H   0  0  0  0  0  0  0  0  0  0  0  0
  1 24  1  6  0  0  0
  1 21  1  0  0  0  0
  2 19  1  1  0  0  0
  2  1  1  0  0  0  0
  3  2  1  0  0  0  0
  3  4  2  0  0  0  0
  4  5  1  0  0  0  0
  5  6  1  0  0  0  0
  7  6  1  0  0  0  0
  8  7  1  0  0  0  0
  9  8  1  0  0  0  0
  9  5  2  0  0  0  0
 10  9  1  0  0  0  0
 11 10  2  0  0  0  0
 11  3  1  0  0  0  0
 12 13  1  0  0  0  0
 12 11  1  0  0  0  0
 13 14  1  0  0  0  0
 14 19  1  1  0  0  0
 14 15  1  0  0  0  0
 14 16  1  0  0  0  0
 17 16  1  0  0  0  0
 18 17  1  0  0  0  0
 19 18  1  6  0  0  0
 19 20  1  0  0  0  0
 20 21  1  0  0  0  0
 21 22  1  1  0  0  0
 22 23  1  0  0  0  0
 25 24  1  0  0  0  0
 26 25  2  0  0  0  0
 27 35  1  6  0  0  0
 27 25  1  0  0  0  0
 27 30  1  0  0  0  0
 28 29  1  0  0  0  0
 28 27  1  0  0  0  0
 31 33  1  0  0  0  0
 31 30  1  0  0  0  0
 32 31  2  0  0  0  0
 34 33  1  0  0  0  0
 36 37  1  0  0  0  0
 36 35  1  0  0  0  0
 38 40  1  0  0  0  0
 38 37  1  0  0  0  0
 38 41  1  0  0  0  0
 39 38  1  0  0  0  0
 41 42  1  0  0  0  0
M  END
>  <minimizedAffinity>
-7.02042246

$$$$

 OpenBabel12271915113D

 42 46  0  0  1  0  0  0  0  0999 V2000
   20.5110   63.2340   32.2420 C   0  0  1  0  0  0  0  0  0  0  0  0
   21.5590   64.4060   31.8800 C   0  0  1  0  0  0  0  0  0  0  0  0
   21.1250   65.9350   31.8530 C   0  0  0  0  0  0  0  0  0  0  0  0
   19.7990   66.2180   32.1490 C   0  0  0  0  0  0  0  0  0  0  0  0
   19.4700   67.5470   32.2490 C   0  0  0  0  0  0  0  0  0  0  0  0
   18.1520   68.0140   32.5660 O   0  0  0  0  0  0  0  0  0  0  0  0
   18.5740   69.4020   32.7200 C   0  0  0  0  0  0  0  0  0  0  0  0
   19.8430   69.8410   32.2410 O   0  0  0  0  0  0  0  0  0  0  0  0
   20.3690   68.5920   32.0630 C   0  0  0  0  0  0  0  0  0  0  0  0
   21.7120   68.3600   31.7590 C   0  0  0  0  0  0  0  0  0  0  0  0
   22.0780   67.0080   31.6610 C   0  0  0  0  0  0  0  0  0  0  0  0
   23.5720   66.7920   31.4470 C   0  0  0  0  0  0  0  0  0  0  0  0
   24.2700   65.6770   32.2340 C   0  0  0  0  0  0  0  0  0  0  0  0
   23.5020   65.2550   33.4480 N   0  0  2  0  0  0  0  0  0  0  0  0
   22.9650   66.0400   33.8400 H   0  0  0  0  0  0  0  0  0  0  0  0
   24.4010   64.6610   34.4990 C   0  0  0  0  0  0  0  0  0  0  0  0
   24.6190   63.2370   33.9450 C   0  0  0  0  0  0  0  0  0  0  0  0
   23.4280   62.9080   33.0530 C   0  0  0  0  0  0  0  0  0  0  0  0
   22.5210   64.1560   33.1750 C   0  0  2  0  0  0  0  0  0  0  0  0
   21.4420   63.9440   34.2620 C   0  0  0  0  0  0  0  0  0  0  0  0
   20.2610   63.5010   33.7500 C   0  0  2  0  0  0  0  0  0  0  0  0
   19.3150   62.9150   34.5510 O   0  0  0  0  0  0  0  0  0  0  0  0
   19.7940   62.6360   35.8340 C   0  0  0  0  0  0  0  0  0  0  0  0
   19.3250   63.1950   31.3820 O   0  0  0  0  0  0  0  0  0  0  0  0
   18.5610   62.0550   31.6340 C   0  0  0  0  0  0  0  0  0  0  0  0
   19.1180   61.0010   31.9140 O   0  0  0  0  0  0  0  0  0  0  0  0
   17.0540   62.2910   31.6020 C   0  0  2  0  0  0  0  0  0  0  0  0
   16.7210   63.0160   30.4310 O   0  0  0  0  0  0  0  0  0  0  0  0
   17.3200   63.7350   30.3310 H   0  0  0  0  0  0  0  0  0  0  0  0
   16.4380   63.0820   32.7540 C   0  0  0  0  0  0  0  0  0  0  0  0
   15.8390   64.3330   32.1530 C   0  0  0  0  0  0  0  0  0  0  0  0
   16.4850   65.2550   31.7340 O   0  0  0  0  0  0  0  0  0  0  0  0
   14.4930   64.1800   32.0130 O   0  0  0  0  0  0  0  0  0  0  0  0
   13.8540   63.5780   33.1240 C   0  0  0  0  0  0  0  0  0  0  0  0
   16.3400   60.8850   31.4850 C   0  0  0  0  0  0  0  0  0  0  0  0
   15.7740   60.4380   32.8200 C   0  0  0  0  0  0  0  0  0  0  0  0
   15.9490   58.9860   33.1740 C   0  0  0  0  0  0  0  0  0  0  0  0
   14.6890   58.1380   33.2340 C   0  0  0  0  0  0  0  0  0  0  0  0
   14.7310   56.9730   32.2550 C   0  0  0  0  0  0  0  0  0  0  0  0
   13.4750   59.0240   32.8110 C   0  0  0  0  0  0  0  0  0  0  0  0
   14.4760   57.6580   34.5350 O   0  0  0  0  0  0  0  0  0  0  0  0
   14.7340   58.2810   35.1800 H   0  0  0  0  0  0  0  0  0  0  0  0
  1 24  1  6  0  0  0
  1 21  1  0  0  0  0
  2  1  1  0  0  0  0
  2 19  1  1  0  0  0
  3  2  1  0  0  0  0
  3  4  2  0  0  0  0
  4  5  1  0  0  0  0
  5  6  1  0  0  0  0
  6  7  1  0  0  0  0
  8  7  1  0  0  0  0
  9  8  1  0  0  0  0
  9  5  2  0  0  0  0
 10  9  1  0  0  0  0
 11 10  2  0  0  0  0
 11  3  1  0  0  0  0
 12 11  1  0  0  0  0
 12 13  1  0  0  0  0
 13 14  1  0  0  0  0
 14 19  1  6  0  0  0
 14 15  1  0  0  0  0
 14 16  1  0  0  0  0
 17 16  1  0  0  0  0
 18 17  1  0  0  0  0
 19 18  1  6  0  0  0
 19 20  1  0  0  0  0
 21 20  1  0  0  0  0
 21 22  1  1  0  0  0
 22 23  1  0  0  0  0
 24 25  1  0  0  0  0
 25 26  2  0  0  0  0
 27 35  1  6  0  0  0
 27 25  1  0  0  0  0
 27 30  1  0  0  0  0
 28 27  1  0  0  0  0
 29 28  1  0  0  0  0
 31 30  1  0  0  0  0
 32 31  2  0  0  0  0
 33 31  1  0  0  0  0
 33 34  1  0  0  0  0
 35 36  1  0  0  0  0
 36 37  1  0  0  0  0
 37 38  1  0  0  0  0
 38 41  1  0  0  0  0
 39 38  1  0  0  0  0
 40 38  1  0  0  0  0
 41 42  1  0  0  0  0
M  END
>  <minimizedAffinity>
-7.01232862

$$$$

 OpenBabel12271915113D

 42 46  0  0  1  0  0  0  0  0999 V2000
   13.7340   61.3110   34.2540 C   0  0  1  0  0  0  0  0  0  0  0  0
   13.0710   60.2260   33.2620 C   0  0  1  0  0  0  0  0  0  0  0  0
   13.6100   58.7320   33.1790 C   0  0  0  0  0  0  0  0  0  0  0  0
   14.6840   58.4040   33.9950 C   0  0  0  0  0  0  0  0  0  0  0  0
   15.0550   57.0830   34.0090 C   0  0  0  0  0  0  0  0  0  0  0  0
   16.1290   56.5700   34.8080 O   0  0  0  0  0  0  0  0  0  0  0  0
   15.8120   55.1770   34.5160 C   0  0  0  0  0  0  0  0  0  0  0  0
   14.9380   54.8310   33.4450 O   0  0  0  0  0  0  0  0  0  0  0  0
   14.4330   56.0880   33.2600 C   0  0  0  0  0  0  0  0  0  0  0  0
   13.3540   56.3680   32.4210 C   0  0  0  0  0  0  0  0  0  0  0  0
   12.9470   57.7110   32.3950 C   0  0  0  0  0  0  0  0  0  0  0  0
   11.6930   57.9570   31.5630 C   0  0  0  0  0  0  0  0  0  0  0  0
   10.6170   58.8970   32.1200 C   0  0  0  0  0  0  0  0  0  0  0  0
   10.7190   59.0820   33.6020 N   0  0  2  0  0  0  0  0  0  0  0  0
   11.0940   58.2380   34.0570 H   0  0  0  0  0  0  0  0  0  0  0  0
    9.3950   59.4580   34.2110 C   0  0  0  0  0  0  0  0  0  0  0  0
    9.3180   60.9600   33.8670 C   0  0  0  0  0  0  0  0  0  0  0  0
   10.7470   61.4610   33.6870 C   0  0  0  0  0  0  0  0  0  0  0  0
   11.6130   60.2170   33.9960 C   0  0  2  0  0  0  0  0  0  0  0  0
   12.0680   60.2230   35.4750 C   0  0  0  0  0  0  0  0  0  0  0  0
   13.3070   60.7610   35.6410 C   0  0  2  0  0  0  0  0  0  0  0  0
   13.7370   61.1870   36.8720 O   0  0  0  0  0  0  0  0  0  0  0  0
   12.7770   61.9490   37.5430 C   0  0  0  0  0  0  0  0  0  0  0  0
   15.1700   61.5210   34.0510 O   0  0  0  0  0  0  0  0  0  0  0  0
   15.4040   62.6140   33.2180 C   0  0  0  0  0  0  0  0  0  0  0  0
   14.5430   63.4760   33.0890 O   0  0  0  0  0  0  0  0  0  0  0  0
   16.7980   62.6420   32.5970 C   0  0  2  0  0  0  0  0  0  0  0  0
   17.6500   63.4400   33.4000 O   0  0  0  0  0  0  0  0  0  0  0  0
   17.2070   64.2410   33.6190 H   0  0  0  0  0  0  0  0  0  0  0  0
   16.9310   63.2070   31.1850 C   0  0  0  0  0  0  0  0  0  0  0  0
   17.5490   64.5790   31.3200 C   0  0  0  0  0  0  0  0  0  0  0  0
   18.7290   64.7960   31.2520 O   0  0  0  0  0  0  0  0  0  0  0  0
   16.5700   65.5260   31.3630 O   0  0  0  0  0  0  0  0  0  0  0  0
   16.9530   66.7860   30.8430 C   0  0  0  0  0  0  0  0  0  0  0  0
   17.3820   61.1730   32.6360 C   0  0  0  0  0  0  0  0  0  0  0  0
   18.7970   61.1250   32.0920 C   0  0  0  0  0  0  0  0  0  0  0  0
   19.8770   60.7140   33.0570 C   0  0  0  0  0  0  0  0  0  0  0  0
   20.7280   61.8270   33.6480 C   0  0  0  0  0  0  0  0  0  0  0  0
   21.1850   62.8250   32.5940 C   0  0  0  0  0  0  0  0  0  0  0  0
   22.0230   61.1950   34.2470 C   0  0  0  0  0  0  0  0  0  0  0  0
   20.0310   62.4950   34.6650 O   0  0  0  0  0  0  0  0  0  0  0  0
   19.4920   61.9120   35.1570 H   0  0  0  0  0  0  0  0  0  0  0  0
  1 24  1  1  0  0  0
  1 21  1  0  0  0  0
  2 19  1  1  0  0  0
  2  1  1  0  0  0  0
  3  2  1  0  0  0  0
  3  4  2  0  0  0  0
  4  5  1  0  0  0  0
  5  6  1  0  0  0  0
  7  6  1  0  0  0  0
  8  7  1  0  0  0  0
  9  8  1  0  0  0  0
  9  5  2  0  0  0  0
 10  9  1  0  0  0  0
 11 10  2  0  0  0  0
 11  3  1  0  0  0  0
 12 13  1  0  0  0  0
 12 11  1  0  0  0  0
 13 14  1  0  0  0  0
 14 19  1  1  0  0  0
 14 15  1  0  0  0  0
 14 16  1  0  0  0  0
 17 16  1  0  0  0  0
 18 17  1  0  0  0  0
 19 18  1  6  0  0  0
 19 20  1  0  0  0  0
 20 21  1  0  0  0  0
 21 22  1  1  0  0  0
 22 23  1  0  0  0  0
 25 24  1  0  0  0  0
 26 25  2  0  0  0  0
 27 30  1  6  0  0  0
 27 35  1  0  0  0  0
 27 25  1  0  0  0  0
 27 28  1  0  0  0  0
 28 29  1  0  0  0  0
 30 31  1  0  0  0  0
 31 33  1  0  0  0  0
 32 31  2  0  0  0  0
 34 33  1  0  0  0  0
 36 35  1  0  0  0  0
 36 37  1  0  0  0  0
 37 38  1  0  0  0  0
 38 40  1  0  0  0  0
 38 41  1  0  0  0  0
 39 38  1  0  0  0  0
 41 42  1  0  0  0  0
M  END
>  <minimizedAffinity>
-6.83345509

$$$$

 OpenBabel12271915113D

 42 46  0  0  1  0  0  0  0  0999 V2000
   14.6790   66.0620   31.5320 C   0  0  1  0  0  0  0  0  0  0  0  0
   14.5790   67.0230   32.8240 C   0  0  1  0  0  0  0  0  0  0  0  0
   15.6640   68.1480   33.1120 C   0  0  0  0  0  0  0  0  0  0  0  0
   16.7080   68.2640   32.2050 C   0  0  0  0  0  0  0  0  0  0  0  0
   17.5640   69.3200   32.3960 C   0  0  0  0  0  0  0  0  0  0  0  0
   18.6820   69.5980   31.5420 O   0  0  0  0  0  0  0  0  0  0  0  0
   18.9610   70.8880   32.1620 C   0  0  0  0  0  0  0  0  0  0  0  0
   18.3850   71.2410   33.4170 O   0  0  0  0  0  0  0  0  0  0  0  0
   17.4460   70.2460   33.4280 C   0  0  0  0  0  0  0  0  0  0  0  0
   16.4170   70.1700   34.3680 C   0  0  0  0  0  0  0  0  0  0  0  0
   15.5210   69.1040   34.1910 C   0  0  0  0  0  0  0  0  0  0  0  0
   14.3460   69.1230   35.1620 C   0  0  0  0  0  0  0  0  0  0  0  0
   12.9460   68.8080   34.6220 C   0  0  0  0  0  0  0  0  0  0  0  0
   12.8430   68.9820   33.1400 N   0  0  2  0  0  0  0  0  0  0  0  0
   13.4780   69.7210   32.8070 H   0  0  0  0  0  0  0  0  0  0  0  0
   11.4310   69.2760   32.7080 C   0  0  0  0  0  0  0  0  0  0  0  0
   10.8010   67.8680   32.7470 C   0  0  0  0  0  0  0  0  0  0  0  0
   11.9300   66.8580   32.5700 C   0  0  0  0  0  0  0  0  0  0  0  0
   13.1850   67.7420   32.3730 C   0  0  2  0  0  0  0  0  0  0  0  0
   13.4750   67.9500   30.8680 C   0  0  0  0  0  0  0  0  0  0  0  0
   14.3870   67.0630   30.3820 C   0  0  2  0  0  0  0  0  0  0  0  0
   14.5110   66.8390   29.0350 O   0  0  0  0  0  0  0  0  0  0  0  0
   13.2760   66.7570   28.3860 C   0  0  0  0  0  0  0  0  0  0  0  0
   15.9300   65.3060   31.4330 O   0  0  0  0  0  0  0  0  0  0  0  0
   15.7960   64.0390   32.0010 C   0  0  0  0  0  0  0  0  0  0  0  0
   14.7530   63.7340   32.5670 O   0  0  0  0  0  0  0  0  0  0  0  0
   16.9920   63.1200   31.7720 C   0  0  2  0  0  0  0  0  0  0  0  0
   16.7360   62.2920   30.6510 O   0  0  0  0  0  0  0  0  0  0  0  0
   15.8660   61.9380   30.7200 H   0  0  0  0  0  0  0  0  0  0  0  0
   17.3730   62.1630   32.8990 C   0  0  0  0  0  0  0  0  0  0  0  0
   17.0390   60.7690   32.4210 C   0  0  0  0  0  0  0  0  0  0  0  0
   15.9250   60.3210   32.3800 O   0  0  0  0  0  0  0  0  0  0  0  0
   18.1510   60.1790   31.9000 O   0  0  0  0  0  0  0  0  0  0  0  0
   19.2600   60.1430   32.7800 C   0  0  0  0  0  0  0  0  0  0  0  0
   18.2380   64.0190   31.3980 C   0  0  0  0  0  0  0  0  0  0  0  0
   19.3700   63.8380   32.3910 C   0  0  0  0  0  0  0  0  0  0  0  0
   20.7130   63.4640   31.8220 C   0  0  0  0  0  0  0  0  0  0  0  0
   21.8660   63.3450   32.8050 C   0  0  0  0  0  0  0  0  0  0  0  0
   21.4110   63.5090   34.2490 C   0  0  0  0  0  0  0  0  0  0  0  0
   22.8750   64.5030   32.5280 C   0  0  0  0  0  0  0  0  0  0  0  0
   22.5230   62.1160   32.6510 O   0  0  0  0  0  0  0  0  0  0  0  0
   22.5500   61.8480   31.7570 H   0  0  0  0  0  0  0  0  0  0  0  0
  1 24  1  6  0  0  0
  1  2  1  0  0  0  0
  2 19  1  6  0  0  0
  2  3  1  0  0  0  0
  3 11  2  0  0  0  0
  4  5  2  0  0  0  0
  4  3  1  0  0  0  0
  5  9  1  0  0  0  0
  6  7  1  0  0  0  0
  6  5  1  0  0  0  0
  7  8  1  0  0  0  0
  8  9  1  0  0  0  0
  9 10  2  0  0  0  0
 11 10  1  0  0  0  0
 11 12  1  0  0  0  0
 13 12  1  0  0  0  0
 14 19  1  6  0  0  0
 14 13  1  0  0  0  0
 15 14  1  0  0  0  0
 16 17  1  0  0  0  0
 16 14  1  0  0  0  0
 18 17  1  0  0  0  0
 19 20  1  6  0  0  0
 19 18  1  0  0  0  0
 21 22  1  6  0  0  0
 21 20  1  0  0  0  0
 21  1  1  0  0  0  0
 23 22  1  0  0  0  0
 24 25  1  0  0  0  0
 25 26  2  0  0  0  0
 27 35  1  6  0  0  0
 27 25  1  0  0  0  0
 27 30  1  0  0  0  0
 28 29  1  0  0  0  0
 28 27  1  0  0  0  0
 31 30  1  0  0  0  0
 32 31  2  0  0  0  0
 33 31  1  0  0  0  0
 33 34  1  0  0  0  0
 35 36  1  0  0  0  0
 37 36  2  0  0  0  0
 37 38  1  0  0  0  0
 38 39  1  0  0  0  0
 40 38  1  0  0  0  0
 41 38  1  0  0  0  0
 42 41  1  0  0  0  0
M  END
>  <minimizedAffinity>
-6.80166626

$$$$

 OpenBabel12271915113D

 42 46  0  0  1  0  0  0  0  0999 V2000
   15.1620   68.2090   31.4390 C   0  0  1  0  0  0  0  0  0  0  0  0
   15.4750   68.8700   32.8760 C   0  0  1  0  0  0  0  0  0  0  0  0
   16.3530   70.1880   33.0150 C   0  0  0  0  0  0  0  0  0  0  0  0
   16.8450   70.7430   31.8420 C   0  0  0  0  0  0  0  0  0  0  0  0
   17.4900   71.9490   31.9640 C   0  0  0  0  0  0  0  0  0  0  0  0
   18.0420   72.6680   30.8530 O   0  0  0  0  0  0  0  0  0  0  0  0
   18.3300   73.8610   31.6410 C   0  0  0  0  0  0  0  0  0  0  0  0
   18.3190   73.8200   33.0670 O   0  0  0  0  0  0  0  0  0  0  0  0
   17.6790   72.6160   33.1700 C   0  0  0  0  0  0  0  0  0  0  0  0
   17.2090   72.0970   34.3780 C   0  0  0  0  0  0  0  0  0  0  0  0
   16.5360   70.8690   34.2800 C   0  0  0  0  0  0  0  0  0  0  0  0
   15.9330   70.3940   35.5980 C   0  0  0  0  0  0  0  0  0  0  0  0
   14.5210   69.7960   35.5830 C   0  0  0  0  0  0  0  0  0  0  0  0
   13.7400   70.1830   34.3660 N   0  0  2  0  0  0  0  0  0  0  0  0
   14.0160   71.1150   34.0270 H   0  0  0  0  0  0  0  0  0  0  0  0
   12.2560   70.1380   34.6170 C   0  0  0  0  0  0  0  0  0  0  0  0
   11.9750   68.6250   34.5130 C   0  0  0  0  0  0  0  0  0  0  0  0
   13.0680   68.0160   33.6410 C   0  0  0  0  0  0  0  0  0  0  0  0
   13.9220   69.2360   33.2200 C   0  0  2  0  0  0  0  0  0  0  0  0
   13.4700   69.7690   31.8400 C   0  0  0  0  0  0  0  0  0  0  0  0
   14.2140   69.2670   30.8150 C   0  0  2  0  0  0  0  0  0  0  0  0
   13.7640   69.3190   29.5210 O   0  0  0  0  0  0  0  0  0  0  0  0
   13.9500   70.5740   28.9350 C   0  0  0  0  0  0  0  0  0  0  0  0
   16.3520   67.8610   30.6590 O   0  0  0  0  0  0  0  0  0  0  0  0
   16.8440   66.6090   31.0270 C   0  0  0  0  0  0  0  0  0  0  0  0
   16.1090   65.6300   30.9840 O   0  0  0  0  0  0  0  0  0  0  0  0
   18.3280   66.5990   31.3830 C   0  0  2  0  0  0  0  0  0  0  0  0
   18.4840   66.9830   32.7380 O   0  0  0  0  0  0  0  0  0  0  0  0
   17.9560   67.7440   32.9070 H   0  0  0  0  0  0  0  0  0  0  0  0
   19.2500   67.5260   30.5940 C   0  0  0  0  0  0  0  0  0  0  0  0
   20.1620   68.1920   31.5970 C   0  0  0  0  0  0  0  0  0  0  0  0
   19.8750   69.1790   32.2180 O   0  0  0  0  0  0  0  0  0  0  0  0
   21.2660   67.4190   31.8030 O   0  0  0  0  0  0  0  0  0  0  0  0
   22.4870   68.1350   31.8070 C   0  0  0  0  0  0  0  0  0  0  0  0
   18.8500   65.1110   31.2700 C   0  0  0  0  0  0  0  0  0  0  0  0
   19.4410   64.6300   32.5820 C   0  0  0  0  0  0  0  0  0  0  0  0
   19.9020   63.1980   32.6280 C   0  0  0  0  0  0  0  0  0  0  0  0
   20.5860   62.7380   33.9050 C   0  0  0  0  0  0  0  0  0  0  0  0
   19.7180   62.9610   35.1360 C   0  0  0  0  0  0  0  0  0  0  0  0
   21.8740   63.5950   34.1140 C   0  0  0  0  0  0  0  0  0  0  0  0
   20.9450   61.3850   33.8160 O   0  0  0  0  0  0  0  0  0  0  0  0
   21.2120   61.1540   32.9510 H   0  0  0  0  0  0  0  0  0  0  0  0
  1 24  1  6  0  0  0
  1  2  1  0  0  0  0
  2  3  1  0  0  0  0
  2 19  1  6  0  0  0
  3 11  2  0  0  0  0
  4  5  2  0  0  0  0
  4  3  1  0  0  0  0
  5  9  1  0  0  0  0
  6  7  1  0  0  0  0
  6  5  1  0  0  0  0
  7  8  1  0  0  0  0
  8  9  1  0  0  0  0
  9 10  2  0  0  0  0
 11 10  1  0  0  0  0
 11 12  1  0  0  0  0
 13 12  1  0  0  0  0
 14 19  1  6  0  0  0
 14 16  1  0  0  0  0
 14 13  1  0  0  0  0
 15 14  1  0  0  0  0
 17 16  1  0  0  0  0
 18 17  1  0  0  0  0
 19 20  1  6  0  0  0
 19 18  1  0  0  0  0
 21 22  1  6  0  0  0
 21  1  1  0  0  0  0
 21 20  1  0  0  0  0
 23 22  1  0  0  0  0
 24 25  1  0  0  0  0
 25 27  1  0  0  0  0
 26 25  2  0  0  0  0
 27 30  1  6  0  0  0
 27 28  1  0  0  0  0
 28 29  1  0  0  0  0
 30 31  1  0  0  0  0
 31 33  1  0  0  0  0
 31 32  2  0  0  0  0
 33 34  1  0  0  0  0
 35 27  1  0  0  0  0
 35 36  1  0  0  0  0
 36 37  2  0  0  0  0
 37 38  1  0  0  0  0
 38 40  1  0  0  0  0
 38 39  1  0  0  0  0
 41 38  1  0  0  0  0
 42 41  1  0  0  0  0
M  END
>  <minimizedAffinity>
-6.4364109

$$$$

 OpenBabel12271915113D

 42 46  0  0  1  0  0  0  0  0999 V2000
   16.6370   61.5410   33.1890 C   0  0  1  0  0  0  0  0  0  0  0  0
   15.2810   61.4110   34.0530 C   0  0  1  0  0  0  0  0  0  0  0  0
   14.3520   62.6680   34.3420 C   0  0  0  0  0  0  0  0  0  0  0  0
   14.7630   63.8870   33.8220 C   0  0  0  0  0  0  0  0  0  0  0  0
   13.8890   64.9350   33.9690 C   0  0  0  0  0  0  0  0  0  0  0  0
   14.1470   66.2560   33.4750 O   0  0  0  0  0  0  0  0  0  0  0  0
   12.7990   66.7330   33.7590 C   0  0  0  0  0  0  0  0  0  0  0  0
   11.9230   65.9970   34.6110 O   0  0  0  0  0  0  0  0  0  0  0  0
   12.6540   64.8420   34.6020 C   0  0  0  0  0  0  0  0  0  0  0  0
   12.1980   63.6400   35.1460 C   0  0  0  0  0  0  0  0  0  0  0  0
   13.0680   62.5480   35.0020 C   0  0  0  0  0  0  0  0  0  0  0  0
   12.4870   61.2300   35.5000 C   0  0  0  0  0  0  0  0  0  0  0  0
   12.7020   59.9690   34.6540 C   0  0  0  0  0  0  0  0  0  0  0  0
   13.0470   60.2770   33.2300 N   0  0  2  0  0  0  0  0  0  0  0  0
   12.6080   61.1560   32.9230 H   0  0  0  0  0  0  0  0  0  0  0  0
   12.6640   59.1520   32.3060 C   0  0  0  0  0  0  0  0  0  0  0  0
   13.8220   58.1590   32.5400 C   0  0  0  0  0  0  0  0  0  0  0  0
   15.0230   58.9640   33.0250 C   0  0  0  0  0  0  0  0  0  0  0  0
   14.5190   60.4270   32.9970 C   0  0  2  0  0  0  0  0  0  0  0  0
   14.9150   61.1160   31.6700 C   0  0  0  0  0  0  0  0  0  0  0  0
   16.0710   61.8270   31.7720 C   0  0  2  0  0  0  0  0  0  0  0  0
   16.7750   62.2010   30.6570 O   0  0  0  0  0  0  0  0  0  0  0  0
   16.9290   63.5870   30.5560 C   0  0  0  0  0  0  0  0  0  0  0  0
   17.6000   62.5120   33.7130 O   0  0  0  0  0  0  0  0  0  0  0  0
   18.9100   62.0710   33.5230 C   0  0  0  0  0  0  0  0  0  0  0  0
   19.1380   60.8730   33.4190 O   0  0  0  0  0  0  0  0  0  0  0  0
   19.9350   63.1940   33.3880 C   0  0  2  0  0  0  0  0  0  0  0  0
   19.5190   64.3020   34.1660 O   0  0  0  0  0  0  0  0  0  0  0  0
   18.6060   64.4660   34.0080 H   0  0  0  0  0  0  0  0  0  0  0  0
   20.1850   63.7560   31.9900 C   0  0  0  0  0  0  0  0  0  0  0  0
   20.3510   65.2500   32.1440 C   0  0  0  0  0  0  0  0  0  0  0  0
   21.3970   65.7910   32.3780 O   0  0  0  0  0  0  0  0  0  0  0  0
   19.1880   65.8810   31.8170 O   0  0  0  0  0  0  0  0  0  0  0  0
   19.1270   67.2380   32.2150 C   0  0  0  0  0  0  0  0  0  0  0  0
   21.2990   62.6890   34.0070 C   0  0  0  0  0  0  0  0  0  0  0  0
   22.3000   62.3290   32.9240 C   0  0  0  0  0  0  0  0  0  0  0  0
   23.7560   62.4330   33.2910 C   0  0  0  0  0  0  0  0  0  0  0  0
   24.4710   63.7180   32.9070 C   0  0  0  0  0  0  0  0  0  0  0  0
   25.8990   63.4660   32.4410 C   0  0  0  0  0  0  0  0  0  0  0  0
   24.5750   64.6240   34.1730 C   0  0  0  0  0  0  0  0  0  0  0  0
   23.7600   64.4020   31.9100 O   0  0  0  0  0  0  0  0  0  0  0  0
   22.8370   64.3140   32.0210 H   0  0  0  0  0  0  0  0  0  0  0  0
  1 24  1  1  0  0  0
  1  2  1  0  0  0  0
  2 19  1  6  0  0  0
  2  3  1  0  0  0  0
  3 11  2  0  0  0  0
  4  5  2  0  0  0  0
  4  3  1  0  0  0  0
  5  9  1  0  0  0  0
  6  7  1  0  0  0  0
  6  5  1  0  0  0  0
  7  8  1  0  0  0  0
  9  8  1  0  0  0  0
  9 10  2  0  0  0  0
 11 10  1  0  0  0  0
 11 12  1  0  0  0  0
 13 12  1  0  0  0  0
 14 19  1  6  0  0  0
 14 13  1  0  0  0  0
 15 14  1  0  0  0  0
 16 17  1  0  0  0  0
 16 14  1  0  0  0  0
 17 18  1  0  0  0  0
 19 20  1  6  0  0  0
 19 18  1  0  0  0  0
 20 21  1  0  0  0  0
 21 22  1  6  0  0  0
 21  1  1  0  0  0  0
 23 22  1  0  0  0  0
 25 24  1  0  0  0  0
 26 25  2  0  0  0  0
 27 30  1  6  0  0  0
 27 25  1  0  0  0  0
 27 35  1  0  0  0  0
 27 28  1  0  0  0  0
 29 28  1  0  0  0  0
 30 31  1  0  0  0  0
 31 32  2  0  0  0  0
 33 31  1  0  0  0  0
 33 34  1  0  0  0  0
 36 37  1  0  0  0  0
 36 35  1  0  0  0  0
 38 37  1  0  0  0  0
 38 40  1  0  0  0  0
 39 38  1  0  0  0  0
 41 42  1  0  0  0  0
 41 38  1  0  0  0  0
M  END
>  <minimizedAffinity>
-6.42516565

$$$$

 OpenBabel12271915113D

 42 46  0  0  1  0  0  0  0  0999 V2000
   14.8990   65.7140   31.1790 C   0  0  1  0  0  0  0  0  0  0  0  0
   13.7090   66.5880   31.8280 C   0  0  1  0  0  0  0  0  0  0  0  0
   14.0070   67.8500   32.7480 C   0  0  0  0  0  0  0  0  0  0  0  0
   15.3390   68.1630   32.9750 C   0  0  0  0  0  0  0  0  0  0  0  0
   15.5800   69.3260   33.6630 C   0  0  0  0  0  0  0  0  0  0  0  0
   16.8960   69.8080   33.9670 O   0  0  0  0  0  0  0  0  0  0  0  0
   16.4190   71.0950   34.4570 C   0  0  0  0  0  0  0  0  0  0  0  0
   15.0430   71.2990   34.7690 O   0  0  0  0  0  0  0  0  0  0  0  0
   14.5860   70.1750   34.1380 C   0  0  0  0  0  0  0  0  0  0  0  0
   13.2310   69.9020   33.9400 C   0  0  0  0  0  0  0  0  0  0  0  0
   12.9560   68.7220   33.2310 C   0  0  0  0  0  0  0  0  0  0  0  0
   11.4750   68.5190   32.9300 C   0  0  0  0  0  0  0  0  0  0  0  0
   11.0720   68.0220   31.5360 C   0  0  0  0  0  0  0  0  0  0  0  0
   12.1380   68.2470   30.5100 N   0  0  2  0  0  0  0  0  0  0  0  0
   12.6920   69.0870   30.7270 H   0  0  0  0  0  0  0  0  0  0  0  0
   11.5660   68.3450   29.1210 C   0  0  0  0  0  0  0  0  0  0  0  0
   11.3300   66.8570   28.7840 C   0  0  0  0  0  0  0  0  0  0  0  0
   12.2950   66.0380   29.6340 C   0  0  0  0  0  0  0  0  0  0  0  0
   13.1060   67.1090   30.4030 C   0  0  2  0  0  0  0  0  0  0  0  0
   14.4270   67.4280   29.6640 C   0  0  0  0  0  0  0  0  0  0  0  0
   15.4820   66.7110   30.1420 C   0  0  2  0  0  0  0  0  0  0  0  0
   16.6340   66.5710   29.4120 O   0  0  0  0  0  0  0  0  0  0  0  0
   17.6970   67.3120   29.9350 C   0  0  0  0  0  0  0  0  0  0  0  0
   15.8450   65.1600   32.1510 O   0  0  0  0  0  0  0  0  0  0  0  0
   15.6990   63.7770   32.2590 C   0  0  0  0  0  0  0  0  0  0  0  0
   14.6150   63.3030   32.5750 O   0  0  0  0  0  0  0  0  0  0  0  0
   16.9480   62.9850   31.8810 C   0  0  2  0  0  0  0  0  0  0  0  0
   16.6810   62.2220   30.7180 O   0  0  0  0  0  0  0  0  0  0  0  0
   15.8500   61.7900   30.8150 H   0  0  0  0  0  0  0  0  0  0  0  0
   17.4850   61.9850   32.9030 C   0  0  0  0  0  0  0  0  0  0  0  0
   17.0380   60.6150   32.4490 C   0  0  0  0  0  0  0  0  0  0  0  0
   15.8920   60.2560   32.4210 O   0  0  0  0  0  0  0  0  0  0  0  0
   18.0970   59.9300   31.9330 O   0  0  0  0  0  0  0  0  0  0  0  0
   19.2450   59.9170   32.7610 C   0  0  0  0  0  0  0  0  0  0  0  0
   18.0850   64.0140   31.4990 C   0  0  0  0  0  0  0  0  0  0  0  0
   19.4640   63.4000   31.6570 C   0  0  0  0  0  0  0  0  0  0  0  0
   20.5390   64.2910   32.2180 C   0  0  0  0  0  0  0  0  0  0  0  0
   21.5220   63.6550   33.1870 C   0  0  0  0  0  0  0  0  0  0  0  0
   22.0860   62.3430   32.6570 C   0  0  0  0  0  0  0  0  0  0  0  0
   20.7630   63.3060   34.5060 C   0  0  0  0  0  0  0  0  0  0  0  0
   22.5710   64.5380   33.4810 O   0  0  0  0  0  0  0  0  0  0  0  0
   22.2770   65.4230   33.5190 H   0  0  0  0  0  0  0  0  0  0  0  0
  1  2  1  0  0  0  0
  1 24  1  1  0  0  0
  2 19  1  6  0  0  0
  2  3  1  0  0  0  0
  3  4  2  0  0  0  0
  3 11  1  0  0  0  0
  4  5  1  0  0  0  0
  5  6  1  0  0  0  0
  5  9  2  0  0  0  0
  6  7  1  0  0  0  0
  7  8  1  0  0  0  0
  9  8  1  0  0  0  0
 10  9  1  0  0  0  0
 11 10  2  0  0  0  0
 12 11  1  0  0  0  0
 13 12  1  0  0  0  0
 14 19  1  1  0  0  0
 14 15  1  0  0  0  0
 14 13  1  0  0  0  0
 16 14  1  0  0  0  0
 17 16  1  0  0  0  0
 17 18  1  0  0  0  0
 19 18  1  6  0  0  0
 20 21  1  0  0  0  0
 20 19  1  0  0  0  0
 21 22  1  6  0  0  0
 21  1  1  0  0  0  0
 22 23  1  0  0  0  0
 24 25  1  0  0  0  0
 25 26  2  0  0  0  0
 27 35  1  6  0  0  0
 27 25  1  0  0  0  0
 27 30  1  0  0  0  0
 28 29  1  0  0  0  0
 28 27  1  0  0  0  0
 31 30  1  0  0  0  0
 32 31  2  0  0  0  0
 33 31  1  0  0  0  0
 33 34  1  0  0  0  0
 35 36  1  0  0  0  0
 36 37  1  0  0  0  0
 37 38  1  0  0  0  0
 38 41  1  0  0  0  0
 38 40  1  0  0  0  0
 39 38  1  0  0  0  0
 41 42  1  0  0  0  0
M  END
>  <minimizedAffinity>
-6.40274763

$$$$
