
 OpenBabel12271915193D

 22 23  0  0  1  0  0  0  0  0999 V2000
   23.0970   66.4140   31.8520 C   0  0  2  0  0  0  0  0  0  0  0  0
   22.1920   65.4680   32.6850 C   0  0  2  0  0  0  0  0  0  0  0  0
   22.9370   64.2190   32.7340 O   0  0  0  0  0  0  0  0  0  0  0  0
   24.2960   64.6000   32.9680 C   0  0  2  0  0  0  0  0  0  0  0  0
   24.4930   65.8370   32.0710 C   0  0  0  0  0  0  0  0  0  0  0  0
   25.2670   63.4700   32.8110 C   0  0  0  0  0  0  0  0  0  0  0  0
   26.1980   63.4290   31.7690 C   0  0  0  0  0  0  0  0  0  0  0  0
   27.1230   62.3730   31.6680 C   0  0  0  0  0  0  0  0  0  0  0  0
   28.0670   62.3230   30.5400 C   0  0  0  0  0  0  0  0  0  0  0  0
   27.0480   61.4220   32.6700 C   0  0  0  0  0  0  0  0  0  0  0  0
   26.1910   61.3760   33.6600 N   0  0  0  0  0  0  0  0  0  0  0  0
   25.3200   62.4290   33.7540 C   0  0  0  0  0  0  0  0  0  0  0  0
   27.9020   60.3900   32.5960 O   0  0  0  0  0  0  0  0  0  0  0  0
   27.1950   59.6330   32.9610 H   0  0  0  0  0  0  0  0  0  0  0  0
   23.1130   67.8070   32.1590 O   0  0  0  0  0  0  0  0  0  0  0  0
   22.1310   68.0620   32.0400 H   0  0  0  0  0  0  0  0  0  0  0  0
   20.7780   65.2440   32.1900 C   0  0  0  0  0  0  0  0  0  0  0  0
   20.3120   64.0810   32.8480 O   0  0  0  0  0  0  0  0  0  0  0  0
   19.4470   63.0700   31.9060 P   0  0  0  0  0  0  0  0  0  0  0  0
   18.3550   64.0050   31.3100 O   0  0  0  0  0  0  0  0  0  0  0  0
   20.5340   62.6480   30.9290 O   0  0  0  0  0  0  0  0  0  0  0  0
   18.9270   62.0120   32.8500 O   0  0  0  0  0  0  0  0  0  0  0  0
  1  5  1  0  0  0  0
  1 15  1  1  0  0  0
  1  2  1  0  0  0  0
  2 17  1  6  0  0  0
  2  3  1  0  0  0  0
  3  4  1  0  0  0  0
  4  6  1  6  0  0  0
  5  4  1  0  0  0  0
  6 12  2  0  0  0  0
  7  6  1  0  0  0  0
  8  7  2  0  0  0  0
  8 10  1  0  0  0  0
  9  8  1  0  0  0  0
 10 11  2  0  0  0  0
 11 12  1  0  0  0  0
 13 10  1  0  0  0  0
 13 14  1  0  0  0  0
 16 15  1  0  0  0  0
 17 18  1  0  0  0  0
 19 18  1  0  0  0  0
 19 22  1  0  0  0  0
 20 19  1  0  0  0  0
 21 19  2  0  0  0  0
M  END
>  <minimizedAffinity>
-7.58824873

$$$$

 OpenBabel12271915193D

 22 23  0  0  1  0  0  0  0  0999 V2000
   23.1860   67.2740   31.5630 C   0  0  2  0  0  0  0  0  0  0  0  0
   22.1030   66.5680   32.4210 C   0  0  2  0  0  0  0  0  0  0  0  0
   22.6490   65.2410   32.6560 O   0  0  0  0  0  0  0  0  0  0  0  0
   24.0340   65.4480   32.9500 C   0  0  2  0  0  0  0  0  0  0  0  0
   24.4660   66.5330   31.9450 C   0  0  0  0  0  0  0  0  0  0  0  0
   24.8330   64.1810   32.9850 C   0  0  0  0  0  0  0  0  0  0  0  0
   25.8100   63.8910   32.0280 C   0  0  0  0  0  0  0  0  0  0  0  0
   26.5700   62.7100   32.1080 C   0  0  0  0  0  0  0  0  0  0  0  0
   27.5640   62.3990   31.0680 C   0  0  0  0  0  0  0  0  0  0  0  0
   26.2910   61.8980   33.1930 C   0  0  0  0  0  0  0  0  0  0  0  0
   25.3770   62.0860   34.1120 N   0  0  0  0  0  0  0  0  0  0  0  0
   24.6700   63.2560   34.0300 C   0  0  0  0  0  0  0  0  0  0  0  0
   26.9830   60.7530   33.2910 O   0  0  0  0  0  0  0  0  0  0  0  0
   26.1490   60.1500   33.6750 H   0  0  0  0  0  0  0  0  0  0  0  0
   23.3940   68.6770   31.7220 O   0  0  0  0  0  0  0  0  0  0  0  0
   22.4690   69.0530   31.5040 H   0  0  0  0  0  0  0  0  0  0  0  0
   20.7030   66.4930   31.8490 C   0  0  0  0  0  0  0  0  0  0  0  0
   20.4580   67.7500   31.2460 O   0  0  0  0  0  0  0  0  0  0  0  0
   18.9920   67.8920   30.5490 P   0  0  0  0  0  0  0  0  0  0  0  0
   19.3450   68.1000   29.0470 O   0  0  0  0  0  0  0  0  0  0  0  0
   18.4180   66.5260   30.8900 O   0  0  0  0  0  0  0  0  0  0  0  0
   18.3590   69.0880   31.2210 O   0  0  0  0  0  0  0  0  0  0  0  0
  1 15  1  1  0  0  0
  1  5  1  0  0  0  0
  1  2  1  0  0  0  0
  2 17  1  6  0  0  0
  2  3  1  0  0  0  0
  3  4  1  0  0  0  0
  4  6  1  6  0  0  0
  5  4  1  0  0  0  0
  6 12  2  0  0  0  0
  7  8  2  0  0  0  0
  7  6  1  0  0  0  0
  8 10  1  0  0  0  0
  9  8  1  0  0  0  0
 10 13  1  0  0  0  0
 10 11  2  0  0  0  0
 12 11  1  0  0  0  0
 13 14  1  0  0  0  0
 16 15  1  0  0  0  0
 18 17  1  0  0  0  0
 19 21  1  0  0  0  0
 19 22  1  0  0  0  0
 19 18  1  0  0  0  0
 20 19  2  0  0  0  0
M  END
>  <minimizedAffinity>
-7.53777695

$$$$

 OpenBabel12271915193D

 22 23  0  0  1  0  0  0  0  0999 V2000
   20.0040   64.5790   32.7830 C   0  0  2  0  0  0  0  0  0  0  0  0
   20.0190   63.7280   34.0810 C   0  0  2  0  0  0  0  0  0  0  0  0
   21.3180   63.0740   34.0590 O   0  0  0  0  0  0  0  0  0  0  0  0
   22.2410   64.0830   33.6360 C   0  0  2  0  0  0  0  0  0  0  0  0
   21.4870   64.8260   32.5170 C   0  0  0  0  0  0  0  0  0  0  0  0
   23.6030   63.5480   33.3150 C   0  0  0  0  0  0  0  0  0  0  0  0
   24.1820   62.5040   34.0430 C   0  0  0  0  0  0  0  0  0  0  0  0
   25.4490   61.9980   33.6940 C   0  0  0  0  0  0  0  0  0  0  0  0
   26.0630   60.9290   34.4980 C   0  0  0  0  0  0  0  0  0  0  0  0
   26.0400   62.5880   32.5920 C   0  0  0  0  0  0  0  0  0  0  0  0
   25.5760   63.5840   31.8780 N   0  0  0  0  0  0  0  0  0  0  0  0
   24.3290   64.0410   32.2180 C   0  0  0  0  0  0  0  0  0  0  0  0
   27.2570   62.1440   32.2420 O   0  0  0  0  0  0  0  0  0  0  0  0
   27.6540   63.1250   31.9470 H   0  0  0  0  0  0  0  0  0  0  0  0
   19.3150   65.8290   32.7800 O   0  0  0  0  0  0  0  0  0  0  0  0
   18.3650   65.5470   33.0280 H   0  0  0  0  0  0  0  0  0  0  0  0
   18.9010   62.7210   34.2640 C   0  0  0  0  0  0  0  0  0  0  0  0
   19.4440   61.4640   33.9090 O   0  0  0  0  0  0  0  0  0  0  0  0
   18.8920   60.8600   32.5000 P   0  0  0  0  0  0  0  0  0  0  0  0
   17.6100   61.7040   32.2430 O   0  0  0  0  0  0  0  0  0  0  0  0
   20.0730   61.1970   31.6030 O   0  0  0  0  0  0  0  0  0  0  0  0
   18.6400   59.3970   32.7790 O   0  0  0  0  0  0  0  0  0  0  0  0
  1 15  1  1  0  0  0
  1  2  1  0  0  0  0
  2 17  1  6  0  0  0
  3  2  1  0  0  0  0
  4  6  1  6  0  0  0
  4  3  1  0  0  0  0
  5  1  1  0  0  0  0
  5  4  1  0  0  0  0
  6  7  1  0  0  0  0
  8  7  2  0  0  0  0
  8  9  1  0  0  0  0
 10  8  1  0  0  0  0
 11 12  1  0  0  0  0
 11 10  2  0  0  0  0
 12  6  2  0  0  0  0
 13 10  1  0  0  0  0
 14 13  1  0  0  0  0
 15 16  1  0  0  0  0
 18 17  1  0  0  0  0
 19 22  1  0  0  0  0
 19 18  1  0  0  0  0
 20 19  1  0  0  0  0
 21 19  2  0  0  0  0
M  END
>  <minimizedAffinity>
-7.3996768

$$$$

 OpenBabel12271915193D

 22 23  0  0  1  0  0  0  0  0999 V2000
   21.1390   61.3940   32.2440 C   0  0  2  0  0  0  0  0  0  0  0  0
   21.6290   61.9920   33.5900 C   0  0  2  0  0  0  0  0  0  0  0  0
   21.5310   63.4290   33.3950 O   0  0  0  0  0  0  0  0  0  0  0  0
   20.2840   63.6340   32.7220 C   0  0  2  0  0  0  0  0  0  0  0  0
   20.2280   62.4890   31.6930 C   0  0  0  0  0  0  0  0  0  0  0  0
   20.1060   65.0310   32.2110 C   0  0  0  0  0  0  0  0  0  0  0  0
   21.1430   65.9680   32.2280 C   0  0  0  0  0  0  0  0  0  0  0  0
   20.9560   67.2620   31.7070 C   0  0  0  0  0  0  0  0  0  0  0  0
   22.0450   68.2490   31.7730 C   0  0  0  0  0  0  0  0  0  0  0  0
   19.7040   67.5110   31.1730 C   0  0  0  0  0  0  0  0  0  0  0  0
   18.6760   66.6980   31.1440 N   0  0  0  0  0  0  0  0  0  0  0  0
   18.8910   65.4360   31.6310 C   0  0  0  0  0  0  0  0  0  0  0  0
   19.4830   68.7400   30.6850 O   0  0  0  0  0  0  0  0  0  0  0  0
   18.4410   68.8120   31.0270 H   0  0  0  0  0  0  0  0  0  0  0  0
   20.4290   60.1560   32.2520 O   0  0  0  0  0  0  0  0  0  0  0  0
   21.1040   59.5280   32.6920 H   0  0  0  0  0  0  0  0  0  0  0  0
   23.0120   61.5950   34.0630 C   0  0  0  0  0  0  0  0  0  0  0  0
   23.8990   61.9440   33.0170 O   0  0  0  0  0  0  0  0  0  0  0  0
   25.3520   62.4900   33.5130 P   0  0  0  0  0  0  0  0  0  0  0  0
   25.0180   63.9110   34.0540 O   0  0  0  0  0  0  0  0  0  0  0  0
   25.6580   61.4520   34.5820 O   0  0  0  0  0  0  0  0  0  0  0  0
   26.2150   62.4720   32.2730 O   0  0  0  0  0  0  0  0  0  0  0  0
  1 15  1  1  0  0  0
  1  2  1  0  0  0  0
  2 17  1  6  0  0  0
  3  2  1  0  0  0  0
  4  6  1  6  0  0  0
  4  3  1  0  0  0  0
  5  1  1  0  0  0  0
  5  4  1  0  0  0  0
  6  7  1  0  0  0  0
  8  9  1  0  0  0  0
  8  7  2  0  0  0  0
 10  8  1  0  0  0  0
 11 10  2  0  0  0  0
 11 12  1  0  0  0  0
 12  6  2  0  0  0  0
 13 14  1  0  0  0  0
 13 10  1  0  0  0  0
 15 16  1  0  0  0  0
 18 19  1  0  0  0  0
 18 17  1  0  0  0  0
 19 20  1  0  0  0  0
 19 21  1  0  0  0  0
 22 19  2  0  0  0  0
M  END
>  <minimizedAffinity>
-7.24141216

$$$$

 OpenBabel12271915193D

 22 23  0  0  1  0  0  0  0  0999 V2000
   20.9520   60.9780   32.5060 C   0  0  2  0  0  0  0  0  0  0  0  0
   21.5060   61.8040   33.6970 C   0  0  2  0  0  0  0  0  0  0  0  0
   21.1410   63.1750   33.3770 O   0  0  0  0  0  0  0  0  0  0  0  0
   19.8000   63.1020   32.8810 C   0  0  2  0  0  0  0  0  0  0  0  0
   19.8040   61.8440   31.9910 C   0  0  0  0  0  0  0  0  0  0  0  0
   19.3210   64.3810   32.2660 C   0  0  0  0  0  0  0  0  0  0  0  0
   20.0900   65.5480   32.2830 C   0  0  0  0  0  0  0  0  0  0  0  0
   19.6300   66.7260   31.6640 C   0  0  0  0  0  0  0  0  0  0  0  0
   20.4320   67.9570   31.7300 C   0  0  0  0  0  0  0  0  0  0  0  0
   18.4000   66.6240   31.0390 C   0  0  0  0  0  0  0  0  0  0  0  0
   17.6110   65.5790   31.0020 N   0  0  0  0  0  0  0  0  0  0  0  0
   18.0930   64.4370   31.5860 C   0  0  0  0  0  0  0  0  0  0  0  0
   17.9200   67.7320   30.4550 O   0  0  0  0  0  0  0  0  0  0  0  0
   16.8700   67.5570   30.7270 H   0  0  0  0  0  0  0  0  0  0  0  0
   20.4700   59.6560   32.7430 O   0  0  0  0  0  0  0  0  0  0  0  0
   21.2940   59.1980   33.1370 H   0  0  0  0  0  0  0  0  0  0  0  0
   22.9870   61.6870   33.9950 C   0  0  0  0  0  0  0  0  0  0  0  0
   23.6560   62.0200   32.7940 O   0  0  0  0  0  0  0  0  0  0  0  0
   24.8560   63.1100   32.9660 P   0  0  0  0  0  0  0  0  0  0  0  0
   26.0720   62.3870   32.3180 O   0  0  0  0  0  0  0  0  0  0  0  0
   24.2760   64.2520   32.1450 O   0  0  0  0  0  0  0  0  0  0  0  0
   24.9700   63.3260   34.4570 O   0  0  0  0  0  0  0  0  0  0  0  0
  1 15  1  1  0  0  0
  1  2  1  0  0  0  0
  2 17  1  6  0  0  0
  3  2  1  0  0  0  0
  4  6  1  6  0  0  0
  4  3  1  0  0  0  0
  5  1  1  0  0  0  0
  5  4  1  0  0  0  0
  6  7  1  0  0  0  0
  8  9  1  0  0  0  0
  8  7  2  0  0  0  0
 10  8  1  0  0  0  0
 11 10  2  0  0  0  0
 11 12  1  0  0  0  0
 12  6  2  0  0  0  0
 13 14  1  0  0  0  0
 13 10  1  0  0  0  0
 15 16  1  0  0  0  0
 18 19  1  0  0  0  0
 18 17  1  0  0  0  0
 19 22  1  0  0  0  0
 20 19  1  0  0  0  0
 21 19  2  0  0  0  0
M  END
>  <minimizedAffinity>
-7.18294525

$$$$

 OpenBabel12271915193D

 22 23  0  0  1  0  0  0  0  0999 V2000
   18.4180   63.4890   31.9240 C   0  0  2  0  0  0  0  0  0  0  0  0
   18.5990   62.1810   32.7400 C   0  0  2  0  0  0  0  0  0  0  0  0
   20.0400   61.9980   32.7990 O   0  0  0  0  0  0  0  0  0  0  0  0
   20.5760   63.2990   33.0570 C   0  0  2  0  0  0  0  0  0  0  0  0
   19.7310   64.2300   32.1660 C   0  0  0  0  0  0  0  0  0  0  0  0
   22.0660   63.3700   32.9140 C   0  0  0  0  0  0  0  0  0  0  0  0
   22.7470   64.5870   32.8170 C   0  0  0  0  0  0  0  0  0  0  0  0
   24.1510   64.6230   32.7210 C   0  0  0  0  0  0  0  0  0  0  0  0
   24.8480   65.9100   32.5760 C   0  0  0  0  0  0  0  0  0  0  0  0
   24.7780   63.3900   32.7520 C   0  0  0  0  0  0  0  0  0  0  0  0
   24.2120   62.2110   32.8130 N   0  0  0  0  0  0  0  0  0  0  0  0
   22.8470   62.2020   32.9350 C   0  0  0  0  0  0  0  0  0  0  0  0
   26.1150   63.3850   32.6420 O   0  0  0  0  0  0  0  0  0  0  0  0
   26.1740   62.4750   32.0290 H   0  0  0  0  0  0  0  0  0  0  0  0
   17.3280   64.3560   32.2340 O   0  0  0  0  0  0  0  0  0  0  0  0
   16.5240   63.7420   32.0990 H   0  0  0  0  0  0  0  0  0  0  0  0
   17.9070   60.9370   32.2210 C   0  0  0  0  0  0  0  0  0  0  0  0
   16.6180   61.3490   31.8080 O   0  0  0  0  0  0  0  0  0  0  0  0
   15.3970   60.7570   32.7110 P   0  0  0  0  0  0  0  0  0  0  0  0
   14.1700   60.8970   31.7640 O   0  0  0  0  0  0  0  0  0  0  0  0
   15.8970   59.3340   32.9070 O   0  0  0  0  0  0  0  0  0  0  0  0
   15.3560   61.6430   33.9340 O   0  0  0  0  0  0  0  0  0  0  0  0
  1  5  1  0  0  0  0
  1 15  1  1  0  0  0
  1  2  1  0  0  0  0
  2 17  1  6  0  0  0
  2  3  1  0  0  0  0
  3  4  1  0  0  0  0
  4  6  1  6  0  0  0
  5  4  1  0  0  0  0
  6 12  2  0  0  0  0
  7  6  1  0  0  0  0
  8 10  1  0  0  0  0
  8  7  2  0  0  0  0
  9  8  1  0  0  0  0
 10 11  2  0  0  0  0
 11 12  1  0  0  0  0
 13 10  1  0  0  0  0
 14 13  1  0  0  0  0
 16 15  1  0  0  0  0
 18 17  1  0  0  0  0
 18 19  1  0  0  0  0
 19 21  1  0  0  0  0
 19 22  1  0  0  0  0
 20 19  2  0  0  0  0
M  END
>  <minimizedAffinity>
-7.12119913

$$$$

 OpenBabel12271915193D

 22 23  0  0  1  0  0  0  0  0999 V2000
   22.3310   61.6100   34.5820 C   0  0  2  0  0  0  0  0  0  0  0  0
   21.7860   61.3700   33.1490 C   0  0  2  0  0  0  0  0  0  0  0  0
   21.9040   62.6680   32.5040 O   0  0  0  0  0  0  0  0  0  0  0  0
   23.1810   63.1740   32.9070 C   0  0  2  0  0  0  0  0  0  0  0  0
   23.2750   62.7960   34.3980 C   0  0  0  0  0  0  0  0  0  0  0  0
   23.3940   64.6120   32.5440 C   0  0  0  0  0  0  0  0  0  0  0  0
   22.3310   65.4690   32.2470 C   0  0  0  0  0  0  0  0  0  0  0  0
   22.5600   66.8250   31.9450 C   0  0  0  0  0  0  0  0  0  0  0  0
   21.4340   67.7030   31.5920 C   0  0  0  0  0  0  0  0  0  0  0  0
   23.8840   67.2270   31.9900 C   0  0  0  0  0  0  0  0  0  0  0  0
   24.9330   66.4810   32.2330 N   0  0  0  0  0  0  0  0  0  0  0  0
   24.6830   65.1720   32.5510 C   0  0  0  0  0  0  0  0  0  0  0  0
   24.1410   68.5080   31.6890 O   0  0  0  0  0  0  0  0  0  0  0  0
   25.0810   68.3110   31.1540 H   0  0  0  0  0  0  0  0  0  0  0  0
   23.0290   60.5560   35.2450 O   0  0  0  0  0  0  0  0  0  0  0  0
   22.3300   59.8110   35.2530 H   0  0  0  0  0  0  0  0  0  0  0  0
   20.3790   60.8220   33.0240 C   0  0  0  0  0  0  0  0  0  0  0  0
   19.7640   61.5540   31.9810 O   0  0  0  0  0  0  0  0  0  0  0  0
   18.3640   62.2780   32.3950 P   0  0  0  0  0  0  0  0  0  0  0  0
   18.3920   63.5880   31.5540 O   0  0  0  0  0  0  0  0  0  0  0  0
   17.3830   61.2240   31.9070 O   0  0  0  0  0  0  0  0  0  0  0  0
   18.4620   62.4840   33.8890 O   0  0  0  0  0  0  0  0  0  0  0  0
  1 15  1  6  0  0  0
  2 17  1  1  0  0  0
  2  1  1  0  0  0  0
  3  4  1  0  0  0  0
  3  2  1  0  0  0  0
  4  6  1  1  0  0  0
  4  5  1  0  0  0  0
  5  1  1  0  0  0  0
  6 12  2  0  0  0  0
  7  6  1  0  0  0  0
  8 10  1  0  0  0  0
  8  7  2  0  0  0  0
  9  8  1  0  0  0  0
 10 11  2  0  0  0  0
 11 12  1  0  0  0  0
 13 10  1  0  0  0  0
 14 13  1  0  0  0  0
 15 16  1  0  0  0  0
 18 19  1  0  0  0  0
 18 17  1  0  0  0  0
 19 22  1  0  0  0  0
 20 19  2  0  0  0  0
 21 19  1  0  0  0  0
M  END
>  <minimizedAffinity>
-7.10996103

$$$$

 OpenBabel12271915193D

 22 23  0  0  1  0  0  0  0  0999 V2000
   18.3150   63.1580   31.9590 C   0  0  2  0  0  0  0  0  0  0  0  0
   19.1780   64.3250   31.4090 C   0  0  2  0  0  0  0  0  0  0  0  0
   20.4660   64.1490   32.0600 O   0  0  0  0  0  0  0  0  0  0  0  0
   20.7230   62.7420   32.0140 C   0  0  2  0  0  0  0  0  0  0  0  0
   19.3570   62.1060   32.3330 C   0  0  0  0  0  0  0  0  0  0  0  0
   21.8930   62.3210   32.8500 C   0  0  0  0  0  0  0  0  0  0  0  0
   23.1890   62.7850   32.6030 C   0  0  0  0  0  0  0  0  0  0  0  0
   24.2620   62.4020   33.4290 C   0  0  0  0  0  0  0  0  0  0  0  0
   25.6270   62.8640   33.1280 C   0  0  0  0  0  0  0  0  0  0  0  0
   23.9310   61.5710   34.4840 C   0  0  0  0  0  0  0  0  0  0  0  0
   22.7520   61.0750   34.7650 N   0  0  0  0  0  0  0  0  0  0  0  0
   21.7170   61.4850   33.9650 C   0  0  0  0  0  0  0  0  0  0  0  0
   24.9320   61.1690   35.2810 O   0  0  0  0  0  0  0  0  0  0  0  0
   24.5480   60.1520   35.4400 H   0  0  0  0  0  0  0  0  0  0  0  0
   17.3330   62.5630   31.1130 O   0  0  0  0  0  0  0  0  0  0  0  0
   16.7400   63.3620   30.8820 H   0  0  0  0  0  0  0  0  0  0  0  0
   18.6510   65.7320   31.6070 C   0  0  0  0  0  0  0  0  0  0  0  0
   19.6780   66.4450   32.2700 O   0  0  0  0  0  0  0  0  0  0  0  0
   20.0370   67.8900   31.6060 P   0  0  0  0  0  0  0  0  0  0  0  0
   21.5880   67.8380   31.4880 O   0  0  0  0  0  0  0  0  0  0  0  0
   19.2880   67.7530   30.2890 O   0  0  0  0  0  0  0  0  0  0  0  0
   19.5110   68.9080   32.5900 O   0  0  0  0  0  0  0  0  0  0  0  0
  1 15  1  6  0  0  0
  1  5  1  0  0  0  0
  2 17  1  1  0  0  0
  2  1  1  0  0  0  0
  2  3  1  0  0  0  0
  4  3  1  0  0  0  0
  4  5  1  0  0  0  0
  4  6  1  1  0  0  0
  6 12  2  0  0  0  0
  7  6  1  0  0  0  0
  7  8  2  0  0  0  0
  8 10  1  0  0  0  0
  9  8  1  0  0  0  0
 10 11  2  0  0  0  0
 10 13  1  0  0  0  0
 12 11  1  0  0  0  0
 13 14  1  0  0  0  0
 16 15  1  0  0  0  0
 17 18  1  0  0  0  0
 19 18  1  0  0  0  0
 19 22  1  0  0  0  0
 20 19  1  0  0  0  0
 21 19  2  0  0  0  0
M  END
>  <minimizedAffinity>
-6.93478632

$$$$

 OpenBabel12271915193D

 22 23  0  0  1  0  0  0  0  0999 V2000
   21.5020   62.3920   32.3550 C   0  0  2  0  0  0  0  0  0  0  0  0
   22.3210   63.4540   33.1370 C   0  0  2  0  0  0  0  0  0  0  0  0
   21.7980   64.7250   32.6590 O   0  0  0  0  0  0  0  0  0  0  0  0
   20.3790   64.5500   32.5980 C   0  0  2  0  0  0  0  0  0  0  0  0
   20.2060   63.1300   32.0260 C   0  0  0  0  0  0  0  0  0  0  0  0
   19.6700   65.6680   31.8970 C   0  0  0  0  0  0  0  0  0  0  0  0
   18.3890   65.5160   31.3600 C   0  0  0  0  0  0  0  0  0  0  0  0
   17.7330   66.5960   30.7390 C   0  0  0  0  0  0  0  0  0  0  0  0
   16.4030   66.4050   30.1400 C   0  0  0  0  0  0  0  0  0  0  0  0
   18.4350   67.7880   30.7280 C   0  0  0  0  0  0  0  0  0  0  0  0
   19.6440   68.0030   31.1850 N   0  0  0  0  0  0  0  0  0  0  0  0
   20.2510   66.9450   31.8090 C   0  0  0  0  0  0  0  0  0  0  0  0
   17.8480   68.8340   30.1280 O   0  0  0  0  0  0  0  0  0  0  0  0
   18.7700   69.2440   29.6910 H   0  0  0  0  0  0  0  0  0  0  0  0
   21.1870   61.1530   32.9890 O   0  0  0  0  0  0  0  0  0  0  0  0
   22.1140   60.7890   33.2140 H   0  0  0  0  0  0  0  0  0  0  0  0
   23.8290   63.3990   33.0110 C   0  0  0  0  0  0  0  0  0  0  0  0
   24.1880   62.0410   33.1840 O   0  0  0  0  0  0  0  0  0  0  0  0
   24.6300   61.6450   34.7010 P   0  0  0  0  0  0  0  0  0  0  0  0
   23.3880   60.8710   35.2310 O   0  0  0  0  0  0  0  0  0  0  0  0
   25.8420   60.7790   34.3910 O   0  0  0  0  0  0  0  0  0  0  0  0
   24.8900   62.9670   35.3860 O   0  0  0  0  0  0  0  0  0  0  0  0
  1 15  1  1  0  0  0
  1  2  1  0  0  0  0
  2 17  1  6  0  0  0
  3  2  1  0  0  0  0
  4  6  1  6  0  0  0
  4  3  1  0  0  0  0
  5  1  1  0  0  0  0
  5  4  1  0  0  0  0
  7  6  1  0  0  0  0
  8  7  2  0  0  0  0
  9  8  1  0  0  0  0
 10  8  1  0  0  0  0
 10 11  2  0  0  0  0
 11 12  1  0  0  0  0
 12  6  2  0  0  0  0
 13 10  1  0  0  0  0
 14 13  1  0  0  0  0
 15 16  1  0  0  0  0
 17 18  1  0  0  0  0
 18 19  1  0  0  0  0
 19 20  1  0  0  0  0
 19 22  1  0  0  0  0
 21 19  2  0  0  0  0
M  END
>  <minimizedAffinity>
-6.92837906

$$$$
