
 OpenBabel12271915123D

 30 33  0  0  1  0  0  0  0  0999 V2000
   19.1960   63.7890   33.5210 C   0  0  1  0  0  0  0  0  0  0  0  0
   18.8810   64.2580   32.1770 N   0  0  0  0  0  0  0  0  0  0  0  0
   19.3030   63.7170   31.4520 H   0  0  0  0  0  0  0  0  0  0  0  0
   17.4730   64.0120   32.1020 O   0  0  0  0  0  0  0  0  0  0  0  0
   17.2070   62.7520   32.7020 C   0  0  2  0  0  0  0  0  0  0  0  0
   17.1110   61.7390   31.5700 C   0  0  1  0  0  0  0  0  0  0  0  0
   16.4320   60.4770   32.0730 C   0  0  2  0  0  0  0  0  0  0  0  0
   15.0020   60.8280   32.5470 C   0  0  1  0  0  0  0  0  0  0  0  0
   14.9400   62.1010   33.3760 C   0  0  2  0  0  0  0  0  0  0  0  0
   16.0990   62.8440   33.5530 O   0  0  0  0  0  0  0  0  0  0  0  0
   18.4140   62.4980   33.6230 C   0  0  0  0  0  0  0  0  0  0  0  0
   20.6700   63.5730   33.7500 C   0  0  0  0  0  0  0  0  0  0  0  0
   21.5400   64.5650   33.3270 C   0  0  0  0  0  0  0  0  0  0  0  0
   22.9090   64.4270   33.4770 C   0  0  0  0  0  0  0  0  0  0  0  0
   23.4280   63.2680   34.0800 C   0  0  0  0  0  0  0  0  0  0  0  0
   24.8170   63.0900   34.2270 C   0  0  0  0  0  0  0  0  0  0  0  0
   25.3140   61.9380   34.8180 C   0  0  0  0  0  0  0  0  0  0  0  0
   24.4660   60.9450   35.2680 C   0  0  0  0  0  0  0  0  0  0  0  0
   23.0990   61.1040   35.1280 C   0  0  0  0  0  0  0  0  0  0  0  0
   22.5690   62.2650   34.5330 C   0  0  0  0  0  0  0  0  0  0  0  0
   21.1840   62.4390   34.3710 C   0  0  0  0  0  0  0  0  0  0  0  0
   17.2000   59.8890   33.1000 O   0  0  0  0  0  0  0  0  0  0  0  0
   16.6360   59.2600   33.6070 H   0  0  0  0  0  0  0  0  0  0  0  0
   16.3960   62.2620   30.4640 O   0  0  0  0  0  0  0  0  0  0  0  0
   16.0170   63.1380   30.7070 H   0  0  0  0  0  0  0  0  0  0  0  0
   14.1240   60.9360   31.4340 O   0  0  0  0  0  0  0  0  0  0  0  0
   14.0740   60.0930   30.9490 H   0  0  0  0  0  0  0  0  0  0  0  0
   14.4430   61.7670   34.8060 C   0  0  0  0  0  0  0  0  0  0  0  0
   14.8310   60.4620   35.2110 O   0  0  0  0  0  0  0  0  0  0  0  0
   15.1850   60.4950   36.1290 H   0  0  0  0  0  0  0  0  0  0  0  0
  1 11  1  0  0  0  0
  1 12  1  6  0  0  0
  2  1  1  0  0  0  0
  3  2  1  0  0  0  0
  4  2  1  0  0  0  0
  4  5  1  0  0  0  0
  5 10  1  0  0  0  0
  5 11  1  1  0  0  0
  6  7  1  0  0  0  0
  6  5  1  1  0  0  0
  7  8  1  0  0  0  0
  7 22  1  1  0  0  0
  8 26  1  6  0  0  0
  8  9  1  0  0  0  0
  9 10  1  0  0  0  0
  9 28  1  1  0  0  0
 12 21  2  0  0  0  0
 13 14  2  0  0  0  0
 13 12  1  0  0  0  0
 14 15  1  0  0  0  0
 15 16  2  0  0  0  0
 15 20  1  0  0  0  0
 16 17  1  0  0  0  0
 17 18  2  0  0  0  0
 19 18  1  0  0  0  0
 20 19  2  0  0  0  0
 21 20  1  0  0  0  0
 22 23  1  0  0  0  0
 24 25  1  0  0  0  0
 24  6  1  0  0  0  0
 27 26  1  0  0  0  0
 28 29  1  0  0  0  0
 29 30  1  0  0  0  0
M  END
>  <minimizedAffinity>
-9.51232719

$$$$

 OpenBabel12271915123D

 30 33  0  0  1  0  0  0  0  0999 V2000
   19.4370   63.4120   33.3540 C   0  0  1  0  0  0  0  0  0  0  0  0
   19.0810   63.9200   32.0340 N   0  0  0  0  0  0  0  0  0  0  0  0
   19.4110   63.3520   31.2810 H   0  0  0  0  0  0  0  0  0  0  0  0
   17.6560   63.7940   32.0450 O   0  0  0  0  0  0  0  0  0  0  0  0
   17.3210   62.5550   32.6540 C   0  0  2  0  0  0  0  0  0  0  0  0
   17.0710   61.5640   31.5250 C   0  0  1  0  0  0  0  0  0  0  0  0
   16.3190   60.3600   32.0620 C   0  0  2  0  0  0  0  0  0  0  0  0
   14.9560   60.8240   32.6260 C   0  0  1  0  0  0  0  0  0  0  0  0
   15.0520   62.0900   33.4630 C   0  0  2  0  0  0  0  0  0  0  0  0
   16.2780   62.7310   33.5720 O   0  0  0  0  0  0  0  0  0  0  0  0
   18.5570   62.1900   33.4970 C   0  0  0  0  0  0  0  0  0  0  0  0
   20.8980   63.0700   33.4900 C   0  0  0  0  0  0  0  0  0  0  0  0
   21.2390   62.0210   34.3300 C   0  0  0  0  0  0  0  0  0  0  0  0
   22.5620   61.6650   34.5290 C   0  0  0  0  0  0  0  0  0  0  0  0
   23.5780   62.3690   33.8590 C   0  0  0  0  0  0  0  0  0  0  0  0
   24.9340   62.0430   34.0570 C   0  0  0  0  0  0  0  0  0  0  0  0
   25.9250   62.7500   33.3940 C   0  0  0  0  0  0  0  0  0  0  0  0
   25.6100   63.7850   32.5340 C   0  0  0  0  0  0  0  0  0  0  0  0
   24.2820   64.1170   32.3310 C   0  0  0  0  0  0  0  0  0  0  0  0
   23.2570   63.4140   32.9910 C   0  0  0  0  0  0  0  0  0  0  0  0
   21.9030   63.7460   32.8070 C   0  0  0  0  0  0  0  0  0  0  0  0
   17.0960   59.6980   33.0360 O   0  0  0  0  0  0  0  0  0  0  0  0
   16.5130   59.1130   33.5740 H   0  0  0  0  0  0  0  0  0  0  0  0
   16.3360   62.1570   30.4670 O   0  0  0  0  0  0  0  0  0  0  0  0
   16.0480   63.0600   30.7380 H   0  0  0  0  0  0  0  0  0  0  0  0
   14.0240   61.0170   31.5690 O   0  0  0  0  0  0  0  0  0  0  0  0
   13.8730   60.1860   31.0840 H   0  0  0  0  0  0  0  0  0  0  0  0
   14.6170   61.7840   34.9190 C   0  0  0  0  0  0  0  0  0  0  0  0
   14.7840   60.4120   35.2460 O   0  0  0  0  0  0  0  0  0  0  0  0
   15.2100   60.3340   36.1290 H   0  0  0  0  0  0  0  0  0  0  0  0
  1 12  1  6  0  0  0
  1 11  1  0  0  0  0
  2  4  1  0  0  0  0
  2  1  1  0  0  0  0
  3  2  1  0  0  0  0
  4  5  1  0  0  0  0
  5 11  1  1  0  0  0
  5 10  1  0  0  0  0
  6  7  1  0  0  0  0
  6  5  1  1  0  0  0
  7  8  1  0  0  0  0
  7 22  1  1  0  0  0
  8 26  1  6  0  0  0
  8  9  1  0  0  0  0
  9 10  1  0  0  0  0
  9 28  1  1  0  0  0
 12 13  2  0  0  0  0
 13 14  1  0  0  0  0
 15 16  1  0  0  0  0
 15 14  2  0  0  0  0
 17 16  2  0  0  0  0
 18 17  1  0  0  0  0
 19 18  2  0  0  0  0
 19 20  1  0  0  0  0
 20 15  1  0  0  0  0
 21 20  2  0  0  0  0
 21 12  1  0  0  0  0
 22 23  1  0  0  0  0
 24 25  1  0  0  0  0
 24  6  1  0  0  0  0
 27 26  1  0  0  0  0
 28 29  1  0  0  0  0
 29 30  1  0  0  0  0
M  END
>  <minimizedAffinity>
-9.37594604

$$$$

 OpenBabel12271915123D

 30 33  0  0  1  0  0  0  0  0999 V2000
   19.1340   66.0770   31.6130 C   0  0  1  0  0  0  0  0  0  0  0  0
   17.8670   65.5130   32.0640 N   0  0  0  0  0  0  0  0  0  0  0  0
   17.7780   65.4650   33.0570 H   0  0  0  0  0  0  0  0  0  0  0  0
   16.9310   66.5000   31.6190 O   0  0  0  0  0  0  0  0  0  0  0  0
   17.4840   67.7850   31.8660 C   0  0  2  0  0  0  0  0  0  0  0  0
   16.8810   68.2780   33.1750 C   0  0  1  0  0  0  0  0  0  0  0  0
   17.0900   69.7770   33.2980 C   0  0  2  0  0  0  0  0  0  0  0  0
   16.3740   70.4850   32.1240 C   0  0  1  0  0  0  0  0  0  0  0  0
   16.5950   69.7990   30.7850 C   0  0  2  0  0  0  0  0  0  0  0  0
   17.3120   68.6110   30.7490 O   0  0  0  0  0  0  0  0  0  0  0  0
   19.0010   67.5410   31.9690 C   0  0  0  0  0  0  0  0  0  0  0  0
   20.3370   65.4470   32.2660 C   0  0  0  0  0  0  0  0  0  0  0  0
   20.1140   64.4220   33.1730 C   0  0  0  0  0  0  0  0  0  0  0  0
   21.1660   63.8120   33.8340 C   0  0  0  0  0  0  0  0  0  0  0  0
   22.4840   64.2290   33.5760 C   0  0  0  0  0  0  0  0  0  0  0  0
   23.5730   63.6410   34.2490 C   0  0  0  0  0  0  0  0  0  0  0  0
   24.8660   64.0670   33.9870 C   0  0  0  0  0  0  0  0  0  0  0  0
   25.1150   65.0710   33.0720 C   0  0  0  0  0  0  0  0  0  0  0  0
   24.0560   65.6590   32.4040 C   0  0  0  0  0  0  0  0  0  0  0  0
   22.7330   65.2430   32.6510 C   0  0  0  0  0  0  0  0  0  0  0  0
   21.6430   65.8380   31.9910 C   0  0  0  0  0  0  0  0  0  0  0  0
   18.4690   70.0730   33.3330 O   0  0  0  0  0  0  0  0  0  0  0  0
   18.6000   71.0270   33.1240 H   0  0  0  0  0  0  0  0  0  0  0  0
   15.4990   67.9760   33.2550 O   0  0  0  0  0  0  0  0  0  0  0  0
   15.1960   67.6050   32.3940 H   0  0  0  0  0  0  0  0  0  0  0  0
   14.9800   70.5910   32.3860 O   0  0  0  0  0  0  0  0  0  0  0  0
   14.8180   71.1170   33.1890 H   0  0  0  0  0  0  0  0  0  0  0  0
   17.3430   70.7600   29.8260 C   0  0  0  0  0  0  0  0  0  0  0  0
   18.5490   70.1900   29.3370 O   0  0  0  0  0  0  0  0  0  0  0  0
   18.6130   70.3400   28.3660 H   0  0  0  0  0  0  0  0  0  0  0  0
  1 11  1  0  0  0  0
  1  2  1  0  0  0  0
  1 12  1  1  0  0  0
  2  3  1  0  0  0  0
  4  5  1  0  0  0  0
  4  2  1  0  0  0  0
  5 11  1  1  0  0  0
  6  5  1  6  0  0  0
  6 24  1  0  0  0  0
  6  7  1  0  0  0  0
  7 22  1  6  0  0  0
  8 26  1  1  0  0  0
  8  7  1  0  0  0  0
  9 28  1  6  0  0  0
  9  8  1  0  0  0  0
 10  9  1  0  0  0  0
 10  5  1  0  0  0  0
 12 13  1  0  0  0  0
 13 14  2  0  0  0  0
 15 14  1  0  0  0  0
 15 16  2  0  0  0  0
 17 16  1  0  0  0  0
 18 17  2  0  0  0  0
 19 20  2  0  0  0  0
 19 18  1  0  0  0  0
 20 15  1  0  0  0  0
 21 12  2  0  0  0  0
 21 20  1  0  0  0  0
 23 22  1  0  0  0  0
 25 24  1  0  0  0  0
 26 27  1  0  0  0  0
 29 28  1  0  0  0  0
 30 29  1  0  0  0  0
M  END
>  <minimizedAffinity>
-8.97617149

$$$$

 OpenBabel12271915123D

 30 33  0  0  1  0  0  0  0  0999 V2000
   19.9090   67.7280   31.6470 C   0  0  1  0  0  0  0  0  0  0  0  0
   19.5940   67.9360   30.2380 N   0  0  0  0  0  0  0  0  0  0  0  0
   19.7530   67.1330   29.6670 H   0  0  0  0  0  0  0  0  0  0  0  0
   18.1780   68.1330   30.2790 O   0  0  0  0  0  0  0  0  0  0  0  0
   17.6230   67.2030   31.1980 C   0  0  2  0  0  0  0  0  0  0  0  0
   17.1050   66.0300   30.3770 C   0  0  1  0  0  0  0  0  0  0  0  0
   16.1470   65.2050   31.2170 C   0  0  2  0  0  0  0  0  0  0  0  0
   14.9470   66.0890   31.6310 C   0  0  1  0  0  0  0  0  0  0  0  0
   15.3570   67.4770   32.0970 C   0  0  2  0  0  0  0  0  0  0  0  0
   16.6950   67.8390   32.0330 O   0  0  0  0  0  0  0  0  0  0  0  0
   18.7990   66.8120   32.1110 C   0  0  0  0  0  0  0  0  0  0  0  0
   21.2700   67.1220   31.8740 C   0  0  0  0  0  0  0  0  0  0  0  0
   22.3760   67.9380   31.6960 C   0  0  0  0  0  0  0  0  0  0  0  0
   23.6600   67.4470   31.8590 C   0  0  0  0  0  0  0  0  0  0  0  0
   23.8480   66.1020   32.2230 C   0  0  0  0  0  0  0  0  0  0  0  0
   25.1420   65.5690   32.3760 C   0  0  0  0  0  0  0  0  0  0  0  0
   25.3110   64.2390   32.7290 C   0  0  0  0  0  0  0  0  0  0  0  0
   24.2250   63.4110   32.9340 C   0  0  0  0  0  0  0  0  0  0  0  0
   22.9470   63.9210   32.7860 C   0  0  0  0  0  0  0  0  0  0  0  0
   22.7480   65.2680   32.4290 C   0  0  0  0  0  0  0  0  0  0  0  0
   21.4570   65.8000   32.2620 C   0  0  0  0  0  0  0  0  0  0  0  0
   16.8200   64.6690   32.3350 O   0  0  0  0  0  0  0  0  0  0  0  0
   16.1570   64.3890   33.0090 H   0  0  0  0  0  0  0  0  0  0  0  0
   16.4540   66.4700   29.1970 O   0  0  0  0  0  0  0  0  0  0  0  0
   16.3800   67.4530   29.2140 H   0  0  0  0  0  0  0  0  0  0  0  0
   14.0190   66.1960   30.5590 O   0  0  0  0  0  0  0  0  0  0  0  0
   13.6680   65.3210   30.3150 H   0  0  0  0  0  0  0  0  0  0  0  0
   14.9500   67.6680   33.5810 C   0  0  0  0  0  0  0  0  0  0  0  0
   14.3970   66.4840   34.1360 O   0  0  0  0  0  0  0  0  0  0  0  0
   14.7910   66.3220   35.0230 H   0  0  0  0  0  0  0  0  0  0  0  0
  1 12  1  6  0  0  0
  1 11  1  0  0  0  0
  2  4  1  0  0  0  0
  2  1  1  0  0  0  0
  3  2  1  0  0  0  0
  4  5  1  0  0  0  0
  5 10  1  0  0  0  0
  5 11  1  1  0  0  0
  6  5  1  1  0  0  0
  6  7  1  0  0  0  0
  7  8  1  0  0  0  0
  7 22  1  1  0  0  0
  8 26  1  6  0  0  0
  8  9  1  0  0  0  0
  9 28  1  1  0  0  0
 10  9  1  0  0  0  0
 12 21  2  0  0  0  0
 13 14  2  0  0  0  0
 13 12  1  0  0  0  0
 14 15  1  0  0  0  0
 15 16  2  0  0  0  0
 15 20  1  0  0  0  0
 16 17  1  0  0  0  0
 17 18  2  0  0  0  0
 19 18  1  0  0  0  0
 20 19  2  0  0  0  0
 21 20  1  0  0  0  0
 22 23  1  0  0  0  0
 24 25  1  0  0  0  0
 24  6  1  0  0  0  0
 27 26  1  0  0  0  0
 28 29  1  0  0  0  0
 29 30  1  0  0  0  0
M  END
>  <minimizedAffinity>
-8.87606716

$$$$

 OpenBabel12271915123D

 30 33  0  0  1  0  0  0  0  0999 V2000
   19.5760   67.2510   31.3470 C   0  0  1  0  0  0  0  0  0  0  0  0
   18.5050   66.4670   31.9510 N   0  0  0  0  0  0  0  0  0  0  0  0
   18.5900   66.3640   32.9410 H   0  0  0  0  0  0  0  0  0  0  0  0
   17.3650   67.3010   31.7240 O   0  0  0  0  0  0  0  0  0  0  0  0
   17.7410   68.6490   31.9680 C   0  0  2  0  0  0  0  0  0  0  0  0
   17.2920   68.9810   33.3840 C   0  0  1  0  0  0  0  0  0  0  0  0
   17.2780   70.4880   33.5730 C   0  0  2  0  0  0  0  0  0  0  0  0
   16.2760   71.1140   32.5750 C   0  0  1  0  0  0  0  0  0  0  0  0
   16.3790   70.5290   31.1750 C   0  0  2  0  0  0  0  0  0  0  0  0
   17.2590   69.4800   30.9480 O   0  0  0  0  0  0  0  0  0  0  0  0
   19.2730   68.6570   31.8160 C   0  0  0  0  0  0  0  0  0  0  0  0
   20.9530   66.8050   31.7610 C   0  0  0  0  0  0  0  0  0  0  0  0
   21.9870   67.7210   31.6540 C   0  0  0  0  0  0  0  0  0  0  0  0
   23.2850   67.3770   31.9890 C   0  0  0  0  0  0  0  0  0  0  0  0
   23.5600   66.0800   32.4580 C   0  0  0  0  0  0  0  0  0  0  0  0
   24.8740   65.6950   32.7880 C   0  0  0  0  0  0  0  0  0  0  0  0
   25.1310   64.4110   33.2430 C   0  0  0  0  0  0  0  0  0  0  0  0
   24.1140   63.4860   33.3800 C   0  0  0  0  0  0  0  0  0  0  0  0
   22.8180   63.8500   33.0590 C   0  0  0  0  0  0  0  0  0  0  0  0
   22.5310   65.1480   32.5950 C   0  0  0  0  0  0  0  0  0  0  0  0
   21.2230   65.5310   32.2530 C   0  0  0  0  0  0  0  0  0  0  0  0
   18.5800   71.0080   33.4120 O   0  0  0  0  0  0  0  0  0  0  0  0
   18.5230   71.9790   33.2500 H   0  0  0  0  0  0  0  0  0  0  0  0
   16.0060   68.4510   33.6590 O   0  0  0  0  0  0  0  0  0  0  0  0
   15.6290   68.0700   32.8320 H   0  0  0  0  0  0  0  0  0  0  0  0
   14.9460   70.9760   33.0570 O   0  0  0  0  0  0  0  0  0  0  0  0
   14.8370   71.4340   33.9090 H   0  0  0  0  0  0  0  0  0  0  0  0
   16.7980   71.6390   30.1770 C   0  0  0  0  0  0  0  0  0  0  0  0
   16.1780   71.4740   28.9090 O   0  0  0  0  0  0  0  0  0  0  0  0
   15.8280   72.3400   28.5990 H   0  0  0  0  0  0  0  0  0  0  0  0
  1 12  1  1  0  0  0
  1 11  1  0  0  0  0
  1  2  1  0  0  0  0
  2  3  1  0  0  0  0
  4  2  1  0  0  0  0
  4  5  1  0  0  0  0
  5 11  1  6  0  0  0
  6  5  1  6  0  0  0
  6  7  1  0  0  0  0
  6 24  1  0  0  0  0
  7 22  1  6  0  0  0
  8 26  1  1  0  0  0
  8  7  1  0  0  0  0
  9 28  1  6  0  0  0
  9  8  1  0  0  0  0
 10  9  1  0  0  0  0
 10  5  1  0  0  0  0
 12 21  1  0  0  0  0
 13 12  2  0  0  0  0
 13 14  1  0  0  0  0
 14 15  2  0  0  0  0
 15 20  1  0  0  0  0
 15 16  1  0  0  0  0
 16 17  2  0  0  0  0
 17 18  1  0  0  0  0
 19 18  2  0  0  0  0
 20 19  1  0  0  0  0
 21 20  2  0  0  0  0
 23 22  1  0  0  0  0
 25 24  1  0  0  0  0
 26 27  1  0  0  0  0
 29 28  1  0  0  0  0
 30 29  1  0  0  0  0
M  END
>  <minimizedAffinity>
-8.77403069

$$$$

 OpenBabel12271915123D

 30 33  0  0  1  0  0  0  0  0999 V2000
   19.9380   68.4460   31.3950 C   0  0  1  0  0  0  0  0  0  0  0  0
   19.3360   68.3340   30.0700 N   0  0  0  0  0  0  0  0  0  0  0  0
   18.8810   67.4600   29.9070 H   0  0  0  0  0  0  0  0  0  0  0  0
   18.3060   69.3250   30.1300 O   0  0  0  0  0  0  0  0  0  0  0  0
   17.6900   69.2540   31.4080 C   0  0  2  0  0  0  0  0  0  0  0  0
   16.4260   68.4230   31.2400 C   0  0  1  0  0  0  0  0  0  0  0  0
   15.5110   68.6410   32.4320 C   0  0  2  0  0  0  0  0  0  0  0  0
   15.1170   70.1340   32.5010 C   0  0  1  0  0  0  0  0  0  0  0  0
   16.2880   71.0750   32.2650 C   0  0  2  0  0  0  0  0  0  0  0  0
   17.5260   70.5380   31.9410 O   0  0  0  0  0  0  0  0  0  0  0  0
   18.7350   68.5650   32.3050 C   0  0  0  0  0  0  0  0  0  0  0  0
   20.8050   67.2700   31.7610 C   0  0  0  0  0  0  0  0  0  0  0  0
   20.1730   66.0870   32.1100 C   0  0  0  0  0  0  0  0  0  0  0  0
   20.9000   64.9710   32.4850 C   0  0  0  0  0  0  0  0  0  0  0  0
   22.3050   65.0310   32.5010 C   0  0  0  0  0  0  0  0  0  0  0  0
   23.0720   63.9180   32.8970 C   0  0  0  0  0  0  0  0  0  0  0  0
   24.4560   63.9950   32.9130 C   0  0  0  0  0  0  0  0  0  0  0  0
   25.1100   65.1560   32.5480 C   0  0  0  0  0  0  0  0  0  0  0  0
   24.3700   66.2580   32.1570 C   0  0  0  0  0  0  0  0  0  0  0  0
   22.9630   66.2050   32.1310 C   0  0  0  0  0  0  0  0  0  0  0  0
   22.1950   67.3190   31.7490 C   0  0  0  0  0  0  0  0  0  0  0  0
   16.1450   68.2050   33.6150 O   0  0  0  0  0  0  0  0  0  0  0  0
   15.6870   68.6020   34.3930 H   0  0  0  0  0  0  0  0  0  0  0  0
   15.7420   68.7530   30.0430 O   0  0  0  0  0  0  0  0  0  0  0  0
   16.1770   69.5330   29.6260 H   0  0  0  0  0  0  0  0  0  0  0  0
   14.0800   70.4160   31.5700 O   0  0  0  0  0  0  0  0  0  0  0  0
   13.2830   69.8930   31.7710 H   0  0  0  0  0  0  0  0  0  0  0  0
   16.5310   71.9320   33.5340 C   0  0  0  0  0  0  0  0  0  0  0  0
   16.6760   71.1290   34.6970 O   0  0  0  0  0  0  0  0  0  0  0  0
   17.4460   71.4470   35.2210 H   0  0  0  0  0  0  0  0  0  0  0  0
  1 12  1  1  0  0  0
  1 11  1  0  0  0  0
  2  4  1  0  0  0  0
  2  1  1  0  0  0  0
  3  2  1  0  0  0  0
  4  5  1  0  0  0  0
  5 10  1  0  0  0  0
  5 11  1  1  0  0  0
  6  5  1  1  0  0  0
  6  7  1  0  0  0  0
  7  8  1  0  0  0  0
  7 22  1  1  0  0  0
  8 26  1  6  0  0  0
  9  8  1  0  0  0  0
  9 28  1  1  0  0  0
 10  9  1  0  0  0  0
 12 13  1  0  0  0  0
 13 14  2  0  0  0  0
 14 15  1  0  0  0  0
 15 16  2  0  0  0  0
 16 17  1  0  0  0  0
 18 17  2  0  0  0  0
 19 18  1  0  0  0  0
 20 19  2  0  0  0  0
 20 15  1  0  0  0  0
 21 12  2  0  0  0  0
 21 20  1  0  0  0  0
 22 23  1  0  0  0  0
 24  6  1  0  0  0  0
 25 24  1  0  0  0  0
 26 27  1  0  0  0  0
 28 29  1  0  0  0  0
 29 30  1  0  0  0  0
M  END
>  <minimizedAffinity>
-8.5468502

$$$$

 OpenBabel12271915123D

 30 33  0  0  1  0  0  0  0  0999 V2000
   19.0590   68.2330   31.2910 C   0  0  1  0  0  0  0  0  0  0  0  0
   17.7440   67.6950   31.6230 N   0  0  0  0  0  0  0  0  0  0  0  0
   17.6740   67.3520   32.5590 H   0  0  0  0  0  0  0  0  0  0  0  0
   16.9220   68.8640   31.5540 O   0  0  0  0  0  0  0  0  0  0  0  0
   17.6280   69.9440   32.1460 C   0  0  2  0  0  0  0  0  0  0  0  0
   17.1190   70.0710   33.5750 C   0  0  1  0  0  0  0  0  0  0  0  0
   17.5060   71.4290   34.1350 C   0  0  2  0  0  0  0  0  0  0  0  0
   16.8510   72.5350   33.2750 C   0  0  1  0  0  0  0  0  0  0  0  0
   16.9580   72.2750   31.7800 C   0  0  2  0  0  0  0  0  0  0  0  0
   17.5280   71.0880   31.3440 O   0  0  0  0  0  0  0  0  0  0  0  0
   19.1080   69.5220   32.0810 C   0  0  0  0  0  0  0  0  0  0  0  0
   20.1930   67.3100   31.6510 C   0  0  0  0  0  0  0  0  0  0  0  0
   19.8720   66.0330   32.0840 C   0  0  0  0  0  0  0  0  0  0  0  0
   20.8580   65.1370   32.4590 C   0  0  0  0  0  0  0  0  0  0  0  0
   22.2090   65.5200   32.3890 C   0  0  0  0  0  0  0  0  0  0  0  0
   23.2320   64.6370   32.7830 C   0  0  0  0  0  0  0  0  0  0  0  0
   24.5590   65.0320   32.7140 C   0  0  0  0  0  0  0  0  0  0  0  0
   24.9060   66.2920   32.2640 C   0  0  0  0  0  0  0  0  0  0  0  0
   23.9110   67.1710   31.8750 C   0  0  0  0  0  0  0  0  0  0  0  0
   22.5560   66.7930   31.9350 C   0  0  0  0  0  0  0  0  0  0  0  0
   21.5310   67.6780   31.5550 C   0  0  0  0  0  0  0  0  0  0  0  0
   18.9100   71.5530   34.1770 O   0  0  0  0  0  0  0  0  0  0  0  0
   19.1490   72.5060   34.2600 H   0  0  0  0  0  0  0  0  0  0  0  0
   15.7130   69.9060   33.6420 O   0  0  0  0  0  0  0  0  0  0  0  0
   15.3480   69.8520   32.7280 H   0  0  0  0  0  0  0  0  0  0  0  0
   15.4860   72.7010   33.6380 O   0  0  0  0  0  0  0  0  0  0  0  0
   15.4060   72.9680   34.5710 H   0  0  0  0  0  0  0  0  0  0  0  0
   17.7910   73.4000   31.1150 C   0  0  0  0  0  0  0  0  0  0  0  0
   18.8890   73.7980   31.9250 O   0  0  0  0  0  0  0  0  0  0  0  0
   19.6980   73.8690   31.3690 H   0  0  0  0  0  0  0  0  0  0  0  0
  1  2  1  0  0  0  0
  1 12  1  1  0  0  0
  1 11  1  0  0  0  0
  2  3  1  0  0  0  0
  4  2  1  0  0  0  0
  4  5  1  0  0  0  0
  5 11  1  1  0  0  0
  6  5  1  6  0  0  0
  6 24  1  0  0  0  0
  6  7  1  0  0  0  0
  7 22  1  6  0  0  0
  8 26  1  1  0  0  0
  8  7  1  0  0  0  0
  9 28  1  6  0  0  0
  9  8  1  0  0  0  0
 10  9  1  0  0  0  0
 10  5  1  0  0  0  0
 12 13  1  0  0  0  0
 13 14  2  0  0  0  0
 15 14  1  0  0  0  0
 15 16  2  0  0  0  0
 17 16  1  0  0  0  0
 18 17  2  0  0  0  0
 19 20  2  0  0  0  0
 19 18  1  0  0  0  0
 20 15  1  0  0  0  0
 21 12  2  0  0  0  0
 21 20  1  0  0  0  0
 22 23  1  0  0  0  0
 25 24  1  0  0  0  0
 26 27  1  0  0  0  0
 28 29  1  0  0  0  0
 30 29  1  0  0  0  0
M  END
>  <minimizedAffinity>
-8.45026302

$$$$

 OpenBabel12271915123D

 30 33  0  0  1  0  0  0  0  0999 V2000
   20.2820   66.5070   31.7570 C   0  0  1  0  0  0  0  0  0  0  0  0
   21.6580   66.7840   32.1530 N   0  0  0  0  0  0  0  0  0  0  0  0
   21.7530   67.0710   33.1050 H   0  0  0  0  0  0  0  0  0  0  0  0
   22.2580   65.4880   32.0570 O   0  0  0  0  0  0  0  0  0  0  0  0
   21.3460   64.5320   32.5780 C   0  0  2  0  0  0  0  0  0  0  0  0
   21.7680   64.2600   34.0150 C   0  0  1  0  0  0  0  0  0  0  0  0
   21.1210   62.9750   34.5010 C   0  0  2  0  0  0  0  0  0  0  0  0
   21.5970   61.8020   33.6130 C   0  0  1  0  0  0  0  0  0  0  0  0
   21.5970   62.1340   32.1290 C   0  0  2  0  0  0  0  0  0  0  0  0
   21.2680   63.4220   31.7290 O   0  0  0  0  0  0  0  0  0  0  0  0
   19.9700   65.2190   32.4870 C   0  0  0  0  0  0  0  0  0  0  0  0
   19.3200   67.6070   32.1230 C   0  0  0  0  0  0  0  0  0  0  0  0
   17.9650   67.3220   32.0710 C   0  0  0  0  0  0  0  0  0  0  0  0
   17.0190   68.2880   32.3660 C   0  0  0  0  0  0  0  0  0  0  0  0
   17.4370   69.5780   32.7370 C   0  0  0  0  0  0  0  0  0  0  0  0
   16.4970   70.5880   33.0240 C   0  0  0  0  0  0  0  0  0  0  0  0
   16.9250   71.8570   33.3820 C   0  0  0  0  0  0  0  0  0  0  0  0
   18.2710   72.1600   33.4640 C   0  0  0  0  0  0  0  0  0  0  0  0
   19.2050   71.1790   33.1840 C   0  0  0  0  0  0  0  0  0  0  0  0
   18.7960   69.8820   32.8180 C   0  0  0  0  0  0  0  0  0  0  0  0
   19.7320   68.8760   32.5180 C   0  0  0  0  0  0  0  0  0  0  0  0
   19.7170   63.1080   34.4950 O   0  0  0  0  0  0  0  0  0  0  0  0
   19.3070   62.2110   34.5270 H   0  0  0  0  0  0  0  0  0  0  0  0
   23.1780   64.1630   34.1320 O   0  0  0  0  0  0  0  0  0  0  0  0
   23.5800   64.1850   33.2330 H   0  0  0  0  0  0  0  0  0  0  0  0
   22.8950   61.3760   34.0090 O   0  0  0  0  0  0  0  0  0  0  0  0
   22.8900   61.0630   34.9320 H   0  0  0  0  0  0  0  0  0  0  0  0
   20.6000   61.2060   31.3880 C   0  0  0  0  0  0  0  0  0  0  0  0
   19.2500   61.5350   31.6830 O   0  0  0  0  0  0  0  0  0  0  0  0
   18.7260   61.5500   30.8500 H   0  0  0  0  0  0  0  0  0  0  0  0
  1 12  1  1  0  0  0
  1  2  1  0  0  0  0
  1 11  1  0  0  0  0
  2  3  1  0  0  0  0
  4  2  1  0  0  0  0
  4  5  1  0  0  0  0
  5 11  1  1  0  0  0
  6  5  1  6  0  0  0
  6 24  1  0  0  0  0
  6  7  1  0  0  0  0
  7 22  1  6  0  0  0
  8 26  1  1  0  0  0
  8  7  1  0  0  0  0
  9 28  1  6  0  0  0
  9  8  1  0  0  0  0
 10  9  1  0  0  0  0
 10  5  1  0  0  0  0
 12 21  1  0  0  0  0
 13 12  2  0  0  0  0
 13 14  1  0  0  0  0
 14 15  2  0  0  0  0
 15 20  1  0  0  0  0
 15 16  1  0  0  0  0
 16 17  2  0  0  0  0
 17 18  1  0  0  0  0
 19 18  2  0  0  0  0
 20 19  1  0  0  0  0
 21 20  2  0  0  0  0
 22 23  1  0  0  0  0
 25 24  1  0  0  0  0
 26 27  1  0  0  0  0
 28 29  1  0  0  0  0
 30 29  1  0  0  0  0
M  END
>  <minimizedAffinity>
-8.16890907

$$$$

 OpenBabel12271915123D

 30 33  0  0  1  0  0  0  0  0999 V2000
   18.0630   63.2110   32.5610 C   0  0  1  0  0  0  0  0  0  0  0  0
   17.6250   62.6190   31.3010 N   0  0  0  0  0  0  0  0  0  0  0  0
   17.7650   61.6310   31.2510 H   0  0  0  0  0  0  0  0  0  0  0  0
   16.2100   62.8280   31.3540 O   0  0  0  0  0  0  0  0  0  0  0  0
   15.7670   62.5600   32.6770 C   0  0  2  0  0  0  0  0  0  0  0  0
   15.2260   61.1370   32.6790 C   0  0  1  0  0  0  0  0  0  0  0  0
   14.3700   60.9210   33.9150 C   0  0  2  0  0  0  0  0  0  0  0  0
   13.1780   61.9050   33.8830 C   0  0  1  0  0  0  0  0  0  0  0  0
   13.5750   63.3160   33.4770 C   0  0  2  0  0  0  0  0  0  0  0  0
   14.8890   63.5630   33.1070 O   0  0  0  0  0  0  0  0  0  0  0  0
   17.0280   62.7150   33.5470 C   0  0  0  0  0  0  0  0  0  0  0  0
   19.4580   62.8080   32.9600 C   0  0  0  0  0  0  0  0  0  0  0  0
   19.7330   61.4530   33.0610 C   0  0  0  0  0  0  0  0  0  0  0  0
   20.9840   61.0040   33.4490 C   0  0  0  0  0  0  0  0  0  0  0  0
   21.9980   61.9360   33.7340 C   0  0  0  0  0  0  0  0  0  0  0  0
   23.2740   61.5100   34.1510 C   0  0  0  0  0  0  0  0  0  0  0  0
   24.2610   62.4410   34.4350 C   0  0  0  0  0  0  0  0  0  0  0  0
   24.0190   63.7960   34.3200 C   0  0  0  0  0  0  0  0  0  0  0  0
   22.7690   64.2290   33.9130 C   0  0  0  0  0  0  0  0  0  0  0  0
   21.7500   63.3040   33.6180 C   0  0  0  0  0  0  0  0  0  0  0  0
   20.4710   63.7270   33.2150 C   0  0  0  0  0  0  0  0  0  0  0  0
   15.1530   61.0740   35.0790 O   0  0  0  0  0  0  0  0  0  0  0  0
   14.5580   61.2190   35.8520 H   0  0  0  0  0  0  0  0  0  0  0  0
   14.4650   60.8700   31.5140 O   0  0  0  0  0  0  0  0  0  0  0  0
   14.3560   61.7020   30.9980 H   0  0  0  0  0  0  0  0  0  0  0  0
   12.1610   61.4230   33.0140 O   0  0  0  0  0  0  0  0  0  0  0  0
   11.8230   60.5620   33.3200 H   0  0  0  0  0  0  0  0  0  0  0  0
   13.2850   64.2940   34.6440 C   0  0  0  0  0  0  0  0  0  0  0  0
   14.1140   65.4470   34.5890 O   0  0  0  0  0  0  0  0  0  0  0  0
   13.5690   66.2510   34.7420 H   0  0  0  0  0  0  0  0  0  0  0  0
  1 12  1  1  0  0  0
  1 11  1  0  0  0  0
  2  4  1  0  0  0  0
  2  1  1  0  0  0  0
  3  2  1  0  0  0  0
  4  5  1  0  0  0  0
  5 10  1  0  0  0  0
  5 11  1  1  0  0  0
  6  5  1  6  0  0  0
  6  7  1  0  0  0  0
  7 22  1  1  0  0  0
  8 26  1  6  0  0  0
  8  7  1  0  0  0  0
  9  8  1  0  0  0  0
  9 28  1  1  0  0  0
 10  9  1  0  0  0  0
 12 13  2  0  0  0  0
 12 21  1  0  0  0  0
 13 14  1  0  0  0  0
 14 15  2  0  0  0  0
 15 16  1  0  0  0  0
 16 17  2  0  0  0  0
 18 17  1  0  0  0  0
 19 18  2  0  0  0  0
 20 15  1  0  0  0  0
 20 19  1  0  0  0  0
 21 20  2  0  0  0  0
 22 23  1  0  0  0  0
 24  6  1  0  0  0  0
 25 24  1  0  0  0  0
 26 27  1  0  0  0  0
 29 28  1  0  0  0  0
 29 30  1  0  0  0  0
M  END
>  <minimizedAffinity>
-8.1529932

$$$$
