
 OpenBabel12271915123D

 37 41  0  0  1  0  0  0  0  0999 V2000
   20.9740   64.9210   32.5420 C   0  0  2  0  0  0  0  0  0  0  0  0
   20.5000   64.1820   31.4110 O   0  0  0  0  0  0  0  0  0  0  0  0
   20.4030   62.8330   31.3710 C   0  0  0  0  0  0  0  0  0  0  0  0
   20.2170   62.2640   30.3310 O   0  0  0  0  0  0  0  0  0  0  0  0
   20.5350   62.1120   32.6540 C   0  0  1  0  0  0  0  0  0  0  0  0
   20.7150   62.7140   33.8690 C   0  0  0  0  0  0  0  0  0  0  0  0
   20.8320   62.2130   35.0070 O   0  0  0  0  0  0  0  0  0  0  0  0
   20.7830   64.2590   33.8950 C   0  0  0  0  0  0  0  0  0  0  0  0
   20.2380   66.2940   32.4880 C   0  0  0  0  0  0  0  0  0  0  0  0
   18.8340   66.1910   31.9010 C   0  0  0  0  0  0  0  0  0  0  0  0
   18.8130   67.0080   30.6270 C   0  0  0  0  0  0  0  0  0  0  0  0
   20.0040   67.9470   30.7040 C   0  0  0  0  0  0  0  0  0  0  0  0
   21.0140   67.2670   31.5850 C   0  0  0  0  0  0  0  0  0  0  0  0
   20.4190   60.6050   32.5170 C   0  0  0  0  0  0  0  0  0  0  0  0
   18.9930   59.9800   32.6080 C   0  0  0  0  0  0  0  0  0  0  0  0
   18.8120   58.5730   32.6420 N   0  0  0  0  0  0  0  0  0  0  0  0
   17.4700   58.4720   32.6970 C   0  0  0  0  0  0  0  0  0  0  0  0
   16.6710   57.3410   32.7430 N   0  0  0  0  0  0  0  0  0  0  0  0
   15.3510   57.4650   32.7340 C   0  0  0  0  0  0  0  0  0  0  0  0
   14.4420   56.2640   32.7680 C   0  0  0  0  0  0  0  0  0  0  0  0
   14.7350   58.8180   32.6780 C   0  0  0  0  0  0  0  0  0  0  0  0
   15.5430   59.8860   32.6390 C   0  0  0  0  0  0  0  0  0  0  0  0
   14.9980   61.2840   32.5700 C   0  0  0  0  0  0  0  0  0  0  0  0
   16.9150   59.7250   32.6480 N   0  0  0  0  0  0  0  0  0  0  0  0
   17.9090   60.6590   32.5310 N   0  0  0  0  0  0  0  0  0  0  0  0
   22.4650   65.3090   32.3640 C   0  0  0  0  0  0  0  0  0  0  0  0
   23.2670   65.1750   33.6370 C   0  0  0  0  0  0  0  0  0  0  0  0
   25.1940   62.0400   34.1730 C   0  0  0  0  0  0  0  0  0  0  0  0
   26.1120   62.0340   33.1440 N   0  0  0  0  0  0  0  0  0  0  0  0
   26.0790   63.0740   32.2780 C   0  0  0  0  0  0  0  0  0  0  0  0
   25.1910   64.0930   32.4130 C   0  0  0  0  0  0  0  0  0  0  0  0
   24.2380   64.0900   33.4540 C   0  0  0  0  0  0  0  0  0  0  0  0
   24.2930   63.0080   34.3350 C   0  0  0  0  0  0  0  0  0  0  0  0
   23.8260   60.6470   35.6780 C   0  0  0  0  0  0  0  0  0  0  0  0
   25.2210   60.8320   35.1030 C   0  0  0  0  0  0  0  0  0  0  0  0
   27.1060   63.0840   31.1580 C   0  0  0  0  0  0  0  0  0  0  0  0
   27.9350   61.8070   31.1930 C   0  0  0  0  0  0  0  0  0  0  0  0
  1 26  1  6  0  0  0
  1  8  1  0  0  0  0
  2  1  1  0  0  0  0
  3  2  1  0  0  0  0
  3  5  1  0  0  0  0
  4  3  2  0  0  0  0
  5 14  1  1  0  0  0
  5  6  1  0  0  0  0
  6  8  1  0  0  0  0
  6  7  2  0  0  0  0
  9  1  1  0  0  0  0
 10  9  1  0  0  0  0
 11 12  1  0  0  0  0
 11 10  1  0  0  0  0
 12 13  1  0  0  0  0
 13  9  1  0  0  0  0
 14 15  1  0  0  0  0
 15 16  2  0  0  0  0
 16 17  2  0  0  0  0
 17 18  2  0  0  0  0
 19 18  2  0  0  0  0
 19 20  1  0  0  0  0
 21 19  1  0  0  0  0
 22 24  1  0  0  0  0
 22 21  2  0  0  0  0
 23 22  1  0  0  0  0
 24 17  1  0  0  0  0
 25 15  2  0  0  0  0
 25 24  1  0  0  0  0
 26 27  1  0  0  0  0
 28 33  1  0  0  0  0
 28 35  1  0  0  0  0
 29 28  2  0  0  0  0
 30 31  1  0  0  0  0
 30 29  2  0  0  0  0
 31 32  1  0  0  0  0
 32 27  1  0  0  0  0
 32 33  2  0  0  0  0
 35 34  1  0  0  0  0
 36 37  1  0  0  0  0
 36 30  1  0  0  0  0
M  END
>  <minimizedAffinity>
-10.2402134

$$$$

 OpenBabel12271915123D

 37 41  0  0  1  0  0  0  0  0999 V2000
   21.0060   64.9090   32.5130 C   0  0  2  0  0  0  0  0  0  0  0  0
   20.4980   64.1700   31.3960 O   0  0  0  0  0  0  0  0  0  0  0  0
   20.3880   62.8220   31.3620 C   0  0  0  0  0  0  0  0  0  0  0  0
   20.1720   62.2520   30.3290 O   0  0  0  0  0  0  0  0  0  0  0  0
   20.5440   62.1040   32.6440 C   0  0  1  0  0  0  0  0  0  0  0  0
   20.7590   62.7070   33.8530 C   0  0  0  0  0  0  0  0  0  0  0  0
   20.8990   62.2090   34.9890 O   0  0  0  0  0  0  0  0  0  0  0  0
   20.8410   64.2520   33.8730 C   0  0  0  0  0  0  0  0  0  0  0  0
   20.2800   66.2880   32.4720 C   0  0  0  0  0  0  0  0  0  0  0  0
   18.8810   66.2040   31.8710 C   0  0  0  0  0  0  0  0  0  0  0  0
   18.8770   67.0400   30.6090 C   0  0  0  0  0  0  0  0  0  0  0  0
   20.0750   67.9680   30.7110 C   0  0  0  0  0  0  0  0  0  0  0  0
   21.0720   67.2680   31.5910 C   0  0  0  0  0  0  0  0  0  0  0  0
   20.4130   60.5980   32.5140 C   0  0  0  0  0  0  0  0  0  0  0  0
   18.9780   59.9900   32.5950 C   0  0  0  0  0  0  0  0  0  0  0  0
   18.7790   58.5850   32.6030 N   0  0  0  0  0  0  0  0  0  0  0  0
   17.4360   58.5010   32.6590 C   0  0  0  0  0  0  0  0  0  0  0  0
   16.6210   57.3800   32.6840 N   0  0  0  0  0  0  0  0  0  0  0  0
   15.3030   57.5210   32.6800 C   0  0  0  0  0  0  0  0  0  0  0  0
   14.3790   56.3320   32.6920 C   0  0  0  0  0  0  0  0  0  0  0  0
   14.7050   58.8830   32.6510 C   0  0  0  0  0  0  0  0  0  0  0  0
   15.5280   59.9410   32.6300 C   0  0  0  0  0  0  0  0  0  0  0  0
   15.0010   61.3470   32.5890 C   0  0  0  0  0  0  0  0  0  0  0  0
   16.8970   59.7620   32.6340 N   0  0  0  0  0  0  0  0  0  0  0  0
   17.9030   60.6850   32.5340 N   0  0  0  0  0  0  0  0  0  0  0  0
   22.4960   65.2830   32.2980 C   0  0  0  0  0  0  0  0  0  0  0  0
   23.3110   65.2190   33.5680 C   0  0  0  0  0  0  0  0  0  0  0  0
   26.0690   63.0940   32.2640 C   0  0  0  0  0  0  0  0  0  0  0  0
   26.1130   62.0310   33.1410 N   0  0  0  0  0  0  0  0  0  0  0  0
   25.2250   62.0340   34.1620 C   0  0  0  0  0  0  0  0  0  0  0  0
   24.3140   63.0300   34.3200 C   0  0  0  0  0  0  0  0  0  0  0  0
   24.2820   64.1280   33.4350 C   0  0  0  0  0  0  0  0  0  0  0  0
   25.2070   64.1030   32.3880 C   0  0  0  0  0  0  0  0  0  0  0  0
   27.8860   61.7850   31.2350 C   0  0  0  0  0  0  0  0  0  0  0  0
   27.1140   63.0910   31.1530 C   0  0  0  0  0  0  0  0  0  0  0  0
   25.2530   60.8500   35.1160 C   0  0  0  0  0  0  0  0  0  0  0  0
   23.8660   60.6080   35.6960 C   0  0  0  0  0  0  0  0  0  0  0  0
  1 26  1  6  0  0  0
  1  8  1  0  0  0  0
  2  1  1  0  0  0  0
  3  2  1  0  0  0  0
  3  5  1  0  0  0  0
  4  3  2  0  0  0  0
  5 14  1  1  0  0  0
  5  6  1  0  0  0  0
  6  8  1  0  0  0  0
  6  7  2  0  0  0  0
  9  1  1  0  0  0  0
 10  9  1  0  0  0  0
 11 12  1  0  0  0  0
 11 10  1  0  0  0  0
 12 13  1  0  0  0  0
 13  9  1  0  0  0  0
 14 15  1  0  0  0  0
 15 16  2  0  0  0  0
 16 17  2  0  0  0  0
 17 18  2  0  0  0  0
 19 18  2  0  0  0  0
 19 20  1  0  0  0  0
 21 19  1  0  0  0  0
 22 24  1  0  0  0  0
 22 21  2  0  0  0  0
 23 22  1  0  0  0  0
 24 17  1  0  0  0  0
 25 15  2  0  0  0  0
 25 24  1  0  0  0  0
 26 27  1  0  0  0  0
 28 33  1  0  0  0  0
 28 29  2  0  0  0  0
 29 30  2  0  0  0  0
 30 31  1  0  0  0  0
 30 36  1  0  0  0  0
 32 27  1  0  0  0  0
 32 31  1  0  0  0  0
 33 32  2  0  0  0  0
 35 34  1  0  0  0  0
 35 28  1  0  0  0  0
 36 37  1  0  0  0  0
M  END
>  <minimizedAffinity>
-10.128459

$$$$

 OpenBabel12271915123D

 37 41  0  0  1  0  0  0  0  0999 V2000
   21.5610   64.1290   32.8620 C   0  0  2  0  0  0  0  0  0  0  0  0
   21.5930   63.2610   34.0010 O   0  0  0  0  0  0  0  0  0  0  0  0
   21.0800   62.0090   34.0170 C   0  0  0  0  0  0  0  0  0  0  0  0
   20.9350   61.4220   35.0530 O   0  0  0  0  0  0  0  0  0  0  0  0
   20.7160   61.4160   32.7140 C   0  0  1  0  0  0  0  0  0  0  0  0
   20.8900   62.0300   31.5040 C   0  0  0  0  0  0  0  0  0  0  0  0
   20.6290   61.6280   30.3510 O   0  0  0  0  0  0  0  0  0  0  0  0
   21.5160   63.4450   31.5070 C   0  0  0  0  0  0  0  0  0  0  0  0
   22.8250   65.0330   32.9850 C   0  0  0  0  0  0  0  0  0  0  0  0
   23.6490   65.0780   31.7020 C   0  0  0  0  0  0  0  0  0  0  0  0
   25.0030   64.4770   32.0100 C   0  0  0  0  0  0  0  0  0  0  0  0
   25.1510   64.5150   33.5220 C   0  0  0  0  0  0  0  0  0  0  0  0
   23.7550   64.4820   34.0780 C   0  0  0  0  0  0  0  0  0  0  0  0
   20.1440   60.0150   32.8250 C   0  0  0  0  0  0  0  0  0  0  0  0
   18.5920   59.8640   32.7760 C   0  0  0  0  0  0  0  0  0  0  0  0
   17.9820   58.5840   32.7290 N   0  0  0  0  0  0  0  0  0  0  0  0
   16.6760   58.9060   32.6760 C   0  0  0  0  0  0  0  0  0  0  0  0
   15.5650   58.0800   32.6060 N   0  0  0  0  0  0  0  0  0  0  0  0
   14.3540   58.6100   32.5020 C   0  0  0  0  0  0  0  0  0  0  0  0
   13.1200   57.7510   32.4080 C   0  0  0  0  0  0  0  0  0  0  0  0
   14.1940   60.0880   32.4630 C   0  0  0  0  0  0  0  0  0  0  0  0
   15.2940   60.8510   32.5370 C   0  0  0  0  0  0  0  0  0  0  0  0
   15.2150   62.3500   32.4930 C   0  0  0  0  0  0  0  0  0  0  0  0
   16.5410   60.2700   32.6440 N   0  0  0  0  0  0  0  0  0  0  0  0
   17.7820   60.8490   32.6480 N   0  0  0  0  0  0  0  0  0  0  0  0
   20.3890   65.1390   32.9690 C   0  0  0  0  0  0  0  0  0  0  0  0
   19.4600   65.0950   31.7780 C   0  0  0  0  0  0  0  0  0  0  0  0
   16.9300   67.6910   30.9480 C   0  0  0  0  0  0  0  0  0  0  0  0
   17.4620   68.8520   31.4690 N   0  0  0  0  0  0  0  0  0  0  0  0
   18.6580   68.7590   32.0960 C   0  0  0  0  0  0  0  0  0  0  0  0
   19.3230   67.5790   32.2030 C   0  0  0  0  0  0  0  0  0  0  0  0
   18.7710   66.3870   31.6880 C   0  0  0  0  0  0  0  0  0  0  0  0
   17.5370   66.5080   31.0450 C   0  0  0  0  0  0  0  0  0  0  0  0
   15.1630   66.4480   29.7620 C   0  0  0  0  0  0  0  0  0  0  0  0
   15.5590   67.8160   30.2930 C   0  0  0  0  0  0  0  0  0  0  0  0
   19.2590   70.0410   32.6480 C   0  0  0  0  0  0  0  0  0  0  0  0
   18.6860   71.2480   31.9180 C   0  0  0  0  0  0  0  0  0  0  0  0
  1 26  1  1  0  0  0
  1  9  1  0  0  0  0
  1  2  1  0  0  0  0
  2  3  1  0  0  0  0
  3  4  2  0  0  0  0
  5 14  1  6  0  0  0
  5  3  1  0  0  0  0
  6  8  1  0  0  0  0
  6  5  1  0  0  0  0
  7  6  2  0  0  0  0
  8  1  1  0  0  0  0
  9 13  1  0  0  0  0
 10 11  1  0  0  0  0
 10  9  1  0  0  0  0
 11 12  1  0  0  0  0
 12 13  1  0  0  0  0
 15 14  1  0  0  0  0
 16 15  2  0  0  0  0
 17 16  2  0  0  0  0
 18 17  2  0  0  0  0
 19 18  2  0  0  0  0
 20 19  1  0  0  0  0
 21 19  1  0  0  0  0
 21 22  2  0  0  0  0
 22 24  1  0  0  0  0
 23 22  1  0  0  0  0
 24 25  1  0  0  0  0
 24 17  1  0  0  0  0
 25 15  2  0  0  0  0
 27 26  1  0  0  0  0
 28 33  1  0  0  0  0
 28 29  2  0  0  0  0
 29 30  2  0  0  0  0
 30 31  1  0  0  0  0
 30 36  1  0  0  0  0
 32 27  1  0  0  0  0
 32 31  1  0  0  0  0
 33 32  2  0  0  0  0
 34 35  1  0  0  0  0
 35 28  1  0  0  0  0
 37 36  1  0  0  0  0
M  END
>  <minimizedAffinity>
-9.08633327

$$$$

 OpenBabel12271915123D

 37 41  0  0  1  0  0  0  0  0999 V2000
   17.1290   61.7850   32.4200 C   0  0  2  0  0  0  0  0  0  0  0  0
   18.0490   60.7950   31.9470 O   0  0  0  0  0  0  0  0  0  0  0  0
   19.3450   60.7160   32.3290 C   0  0  0  0  0  0  0  0  0  0  0  0
   20.1160   60.0150   31.7350 O   0  0  0  0  0  0  0  0  0  0  0  0
   19.7490   61.5240   33.4980 C   0  0  1  0  0  0  0  0  0  0  0  0
   18.9040   62.3130   34.2290 C   0  0  0  0  0  0  0  0  0  0  0  0
   19.1300   63.0280   35.2280 O   0  0  0  0  0  0  0  0  0  0  0  0
   17.4190   62.3560   33.7970 C   0  0  0  0  0  0  0  0  0  0  0  0
   15.7250   61.1070   32.3860 C   0  0  0  0  0  0  0  0  0  0  0  0
   14.7400   61.7330   33.3680 C   0  0  0  0  0  0  0  0  0  0  0  0
   14.3690   60.6700   34.3790 C   0  0  0  0  0  0  0  0  0  0  0  0
   14.7380   59.3370   33.7500 C   0  0  0  0  0  0  0  0  0  0  0  0
   15.8520   59.6270   32.7820 C   0  0  0  0  0  0  0  0  0  0  0  0
   21.2180   61.3820   33.8540 C   0  0  0  0  0  0  0  0  0  0  0  0
   22.1770   62.5380   33.4330 C   0  0  0  0  0  0  0  0  0  0  0  0
   21.6810   63.8390   33.1620 N   0  0  0  0  0  0  0  0  0  0  0  0
   22.8080   64.4960   32.8260 C   0  0  0  0  0  0  0  0  0  0  0  0
   22.9790   65.8170   32.4450 N   0  0  0  0  0  0  0  0  0  0  0  0
   24.1820   66.2530   32.0960 C   0  0  0  0  0  0  0  0  0  0  0  0
   24.4130   67.6760   31.6600 C   0  0  0  0  0  0  0  0  0  0  0  0
   25.3410   65.3210   32.1170 C   0  0  0  0  0  0  0  0  0  0  0  0
   25.1330   64.0520   32.4950 C   0  0  0  0  0  0  0  0  0  0  0  0
   26.2500   63.0490   32.5310 C   0  0  0  0  0  0  0  0  0  0  0  0
   23.8690   63.6270   32.8520 N   0  0  0  0  0  0  0  0  0  0  0  0
   23.4240   62.3760   33.1850 N   0  0  0  0  0  0  0  0  0  0  0  0
   16.9900   62.9440   31.3990 C   0  0  0  0  0  0  0  0  0  0  0  0
   18.2930   63.6660   31.1440 C   0  0  0  0  0  0  0  0  0  0  0  0
   16.5820   66.9640   31.0050 C   0  0  0  0  0  0  0  0  0  0  0  0
   17.5610   67.8620   31.3720 N   0  0  0  0  0  0  0  0  0  0  0  0
   18.7830   67.3600   31.6660 C   0  0  0  0  0  0  0  0  0  0  0  0
   19.0500   66.0300   31.5940 C   0  0  0  0  0  0  0  0  0  0  0  0
   18.0430   65.1080   31.2380 C   0  0  0  0  0  0  0  0  0  0  0  0
   16.7910   65.6500   30.9380 C   0  0  0  0  0  0  0  0  0  0  0  0
   14.5940   66.8000   29.5560 C   0  0  0  0  0  0  0  0  0  0  0  0
   15.2020   67.5520   30.7290 C   0  0  0  0  0  0  0  0  0  0  0  0
   19.8730   68.3500   32.0450 C   0  0  0  0  0  0  0  0  0  0  0  0
   19.2640   69.5670   32.7290 C   0  0  0  0  0  0  0  0  0  0  0  0
  1 26  1  6  0  0  0
  1  8  1  0  0  0  0
  2  3  1  0  0  0  0
  2  1  1  0  0  0  0
  3  5  1  0  0  0  0
  4  3  2  0  0  0  0
  5 14  1  1  0  0  0
  5  6  1  0  0  0  0
  6  7  2  0  0  0  0
  8  6  1  0  0  0  0
  9  1  1  0  0  0  0
  9 13  1  0  0  0  0
  9 10  1  0  0  0  0
 10 11  1  0  0  0  0
 12 11  1  0  0  0  0
 13 12  1  0  0  0  0
 15 14  1  0  0  0  0
 16 15  2  0  0  0  0
 17 24  1  0  0  0  0
 17 16  2  0  0  0  0
 18 17  2  0  0  0  0
 19 21  1  0  0  0  0
 19 18  2  0  0  0  0
 20 19  1  0  0  0  0
 21 22  2  0  0  0  0
 22 23  1  0  0  0  0
 22 24  1  0  0  0  0
 24 25  1  0  0  0  0
 25 15  2  0  0  0  0
 27 32  1  0  0  0  0
 27 26  1  0  0  0  0
 28 29  2  0  0  0  0
 29 30  2  0  0  0  0
 30 36  1  0  0  0  0
 31 30  1  0  0  0  0
 32 31  1  0  0  0  0
 33 28  1  0  0  0  0
 33 32  2  0  0  0  0
 34 35  1  0  0  0  0
 35 28  1  0  0  0  0
 36 37  1  0  0  0  0
M  END
>  <minimizedAffinity>
-9.04844952

$$$$

 OpenBabel12271915123D

 37 41  0  0  1  0  0  0  0  0999 V2000
   21.6390   64.1010   32.8760 C   0  0  2  0  0  0  0  0  0  0  0  0
   21.5460   63.2840   34.0490 O   0  0  0  0  0  0  0  0  0  0  0  0
   20.9870   62.0520   34.0760 C   0  0  0  0  0  0  0  0  0  0  0  0
   20.7380   61.5170   35.1200 O   0  0  0  0  0  0  0  0  0  0  0  0
   20.7060   61.4140   32.7740 C   0  0  1  0  0  0  0  0  0  0  0  0
   21.0000   61.9670   31.5570 C   0  0  0  0  0  0  0  0  0  0  0  0
   20.8160   61.5230   30.4040 O   0  0  0  0  0  0  0  0  0  0  0  0
   21.6770   63.3580   31.5520 C   0  0  0  0  0  0  0  0  0  0  0  0
   22.9230   64.9650   33.0630 C   0  0  0  0  0  0  0  0  0  0  0  0
   23.7310   65.1120   31.7790 C   0  0  0  0  0  0  0  0  0  0  0  0
   25.0770   64.4600   32.0110 C   0  0  0  0  0  0  0  0  0  0  0  0
   25.2430   64.3560   33.5170 C   0  0  0  0  0  0  0  0  0  0  0  0
   23.8550   64.2980   34.0880 C   0  0  0  0  0  0  0  0  0  0  0  0
   20.0740   60.0400   32.8960 C   0  0  0  0  0  0  0  0  0  0  0  0
   18.5180   59.9520   32.8200 C   0  0  0  0  0  0  0  0  0  0  0  0
   17.8570   58.6980   32.7860 N   0  0  0  0  0  0  0  0  0  0  0  0
   16.5660   59.0720   32.7020 C   0  0  0  0  0  0  0  0  0  0  0  0
   15.4230   58.2920   32.6270 N   0  0  0  0  0  0  0  0  0  0  0  0
   14.2380   58.8700   32.4900 C   0  0  0  0  0  0  0  0  0  0  0  0
   12.9700   58.0620   32.3890 C   0  0  0  0  0  0  0  0  0  0  0  0
   14.1400   60.3520   32.4220 C   0  0  0  0  0  0  0  0  0  0  0  0
   15.2690   61.0700   32.5020 C   0  0  0  0  0  0  0  0  0  0  0  0
   15.2540   62.5700   32.4290 C   0  0  0  0  0  0  0  0  0  0  0  0
   16.4900   60.4400   32.6430 N   0  0  0  0  0  0  0  0  0  0  0  0
   17.7530   60.9680   32.6600 N   0  0  0  0  0  0  0  0  0  0  0  0
   20.5010   65.1540   32.8450 C   0  0  0  0  0  0  0  0  0  0  0  0
   19.4480   64.8560   31.8030 C   0  0  0  0  0  0  0  0  0  0  0  0
   18.2770   68.3800   31.9940 C   0  0  0  0  0  0  0  0  0  0  0  0
   17.1050   68.3810   31.2670 N   0  0  0  0  0  0  0  0  0  0  0  0
   16.7170   67.2070   30.7160 C   0  0  0  0  0  0  0  0  0  0  0  0
   17.4370   66.0660   30.8760 C   0  0  0  0  0  0  0  0  0  0  0  0
   18.6460   66.0690   31.6030 C   0  0  0  0  0  0  0  0  0  0  0  0
   19.0260   67.2910   32.1620 C   0  0  0  0  0  0  0  0  0  0  0  0
   17.5580   70.3050   33.3560 C   0  0  0  0  0  0  0  0  0  0  0  0
   18.7170   69.7270   32.5590 C   0  0  0  0  0  0  0  0  0  0  0  0
   15.4130   67.1990   29.9360 C   0  0  0  0  0  0  0  0  0  0  0  0
   14.4430   66.1940   30.5440 C   0  0  0  0  0  0  0  0  0  0  0  0
  1 26  1  6  0  0  0
  1  9  1  0  0  0  0
  1  2  1  0  0  0  0
  2  3  1  0  0  0  0
  3  4  2  0  0  0  0
  5 14  1  1  0  0  0
  5  3  1  0  0  0  0
  6  5  1  0  0  0  0
  7  6  2  0  0  0  0
  8  6  1  0  0  0  0
  8  1  1  0  0  0  0
  9 13  1  0  0  0  0
 10 11  1  0  0  0  0
 10  9  1  0  0  0  0
 11 12  1  0  0  0  0
 12 13  1  0  0  0  0
 15 14  1  0  0  0  0
 16 15  2  0  0  0  0
 17 16  2  0  0  0  0
 18 17  2  0  0  0  0
 19 18  2  0  0  0  0
 20 19  1  0  0  0  0
 21 19  1  0  0  0  0
 21 22  2  0  0  0  0
 22 24  1  0  0  0  0
 23 22  1  0  0  0  0
 24 25  1  0  0  0  0
 24 17  1  0  0  0  0
 25 15  2  0  0  0  0
 27 26  1  0  0  0  0
 28 33  1  0  0  0  0
 28 35  1  0  0  0  0
 29 28  2  0  0  0  0
 30 31  1  0  0  0  0
 30 29  2  0  0  0  0
 31 32  1  0  0  0  0
 32 27  1  0  0  0  0
 32 33  2  0  0  0  0
 35 34  1  0  0  0  0
 36 37  1  0  0  0  0
 36 30  1  0  0  0  0
M  END
>  <minimizedAffinity>
-9.01421833

$$$$

 OpenBabel12271915123D

 37 41  0  0  1  0  0  0  0  0999 V2000
   18.0930   62.4640   32.3360 C   0  0  2  0  0  0  0  0  0  0  0  0
   19.2240   62.8000   31.5240 O   0  0  0  0  0  0  0  0  0  0  0  0
   20.3100   63.4710   31.9720 C   0  0  0  0  0  0  0  0  0  0  0  0
   21.1140   63.9170   31.2020 O   0  0  0  0  0  0  0  0  0  0  0  0
   20.4480   63.6220   33.4350 C   0  0  1  0  0  0  0  0  0  0  0  0
   19.5780   63.1070   34.3570 C   0  0  0  0  0  0  0  0  0  0  0  0
   19.5960   63.1660   35.6040 O   0  0  0  0  0  0  0  0  0  0  0  0
   18.3660   62.3080   33.8220 C   0  0  0  0  0  0  0  0  0  0  0  0
   17.5200   61.1440   31.7360 C   0  0  0  0  0  0  0  0  0  0  0  0
   16.0790   60.8780   32.1580 C   0  0  0  0  0  0  0  0  0  0  0  0
   16.0710   59.5990   32.9670 C   0  0  0  0  0  0  0  0  0  0  0  0
   17.3660   58.8790   32.6370 C   0  0  0  0  0  0  0  0  0  0  0  0
   18.3450   59.9450   32.2320 C   0  0  0  0  0  0  0  0  0  0  0  0
   21.6880   64.3930   33.8500 C   0  0  0  0  0  0  0  0  0  0  0  0
   23.0750   63.7690   33.5020 C   0  0  0  0  0  0  0  0  0  0  0  0
   23.7700   64.1440   32.3230 N   0  0  0  0  0  0  0  0  0  0  0  0
   24.8730   63.3750   32.4010 C   0  0  0  0  0  0  0  0  0  0  0  0
   25.9460   63.2790   31.5290 N   0  0  0  0  0  0  0  0  0  0  0  0
   26.9140   62.4050   31.7680 C   0  0  0  0  0  0  0  0  0  0  0  0
   28.0920   62.2560   30.8410 C   0  0  0  0  0  0  0  0  0  0  0  0
   26.8450   61.5340   32.9720 C   0  0  0  0  0  0  0  0  0  0  0  0
   25.7920   61.6610   33.7910 C   0  0  0  0  0  0  0  0  0  0  0  0
   25.6440   60.8100   35.0200 C   0  0  0  0  0  0  0  0  0  0  0  0
   24.7980   62.5790   33.5160 N   0  0  0  0  0  0  0  0  0  0  0  0
   23.6140   62.8120   34.1620 N   0  0  0  0  0  0  0  0  0  0  0  0
   16.9410   63.4810   32.1270 C   0  0  0  0  0  0  0  0  0  0  0  0
   16.9320   64.0870   30.7430 C   0  0  0  0  0  0  0  0  0  0  0  0
   16.0150   67.6860   30.5590 C   0  0  0  0  0  0  0  0  0  0  0  0
   17.1040   68.3350   31.1010 N   0  0  0  0  0  0  0  0  0  0  0  0
   18.1340   67.5660   31.5270 C   0  0  0  0  0  0  0  0  0  0  0  0
   18.1130   66.2120   31.4180 C   0  0  0  0  0  0  0  0  0  0  0  0
   16.9910   65.5460   30.8820 C   0  0  0  0  0  0  0  0  0  0  0  0
   15.9410   66.3600   30.4490 C   0  0  0  0  0  0  0  0  0  0  0  0
   15.2530   70.0210   30.3540 C   0  0  0  0  0  0  0  0  0  0  0  0
   14.8490   68.5720   30.1350 C   0  0  0  0  0  0  0  0  0  0  0  0
   19.3470   68.2800   32.1010 C   0  0  0  0  0  0  0  0  0  0  0  0
   20.6240   67.5540   31.6980 C   0  0  0  0  0  0  0  0  0  0  0  0
  1 26  1  6  0  0  0
  1  8  1  0  0  0  0
  2  3  1  0  0  0  0
  2  1  1  0  0  0  0
  3  5  1  0  0  0  0
  4  3  2  0  0  0  0
  5 14  1  1  0  0  0
  5  6  1  0  0  0  0
  6  7  2  0  0  0  0
  8  6  1  0  0  0  0
  9 10  1  0  0  0  0
  9 13  1  0  0  0  0
  9  1  1  0  0  0  0
 10 11  1  0  0  0  0
 12 11  1  0  0  0  0
 13 12  1  0  0  0  0
 15 14  1  0  0  0  0
 15 25  2  0  0  0  0
 16 17  2  0  0  0  0
 16 15  2  0  0  0  0
 17 24  1  0  0  0  0
 18 19  2  0  0  0  0
 18 17  2  0  0  0  0
 19 21  1  0  0  0  0
 20 19  1  0  0  0  0
 21 22  2  0  0  0  0
 22 23  1  0  0  0  0
 24 22  1  0  0  0  0
 24 25  1  0  0  0  0
 27 32  1  0  0  0  0
 27 26  1  0  0  0  0
 28 29  2  0  0  0  0
 29 30  2  0  0  0  0
 30 36  1  0  0  0  0
 31 30  1  0  0  0  0
 32 31  1  0  0  0  0
 33 28  1  0  0  0  0
 33 32  2  0  0  0  0
 35 34  1  0  0  0  0
 35 28  1  0  0  0  0
 37 36  1  0  0  0  0
M  END
>  <minimizedAffinity>
-8.8618927

$$$$

 OpenBabel12271915123D

 37 41  0  0  1  0  0  0  0  0999 V2000
   18.1260   68.5100   31.8170 C   0  0  2  0  0  0  0  0  0  0  0  0
   17.6560   67.9850   30.5700 O   0  0  0  0  0  0  0  0  0  0  0  0
   16.5320   67.2460   30.4310 C   0  0  0  0  0  0  0  0  0  0  0  0
   16.3130   66.6500   29.4130 O   0  0  0  0  0  0  0  0  0  0  0  0
   15.6050   67.2130   31.5810 C   0  0  1  0  0  0  0  0  0  0  0  0
   15.7910   67.8980   32.7510 C   0  0  0  0  0  0  0  0  0  0  0  0
   15.0800   67.9500   33.7760 O   0  0  0  0  0  0  0  0  0  0  0  0
   17.0630   68.7690   32.8710 C   0  0  0  0  0  0  0  0  0  0  0  0
   18.8870   69.8240   31.4620 C   0  0  0  0  0  0  0  0  0  0  0  0
   19.2580   70.6450   32.6920 C   0  0  0  0  0  0  0  0  0  0  0  0
   18.5220   71.9640   32.5970 C   0  0  0  0  0  0  0  0  0  0  0  0
   18.1130   72.1180   31.1420 C   0  0  0  0  0  0  0  0  0  0  0  0
   17.9950   70.7240   30.5930 C   0  0  0  0  0  0  0  0  0  0  0  0
   14.3740   66.3570   31.3430 C   0  0  0  0  0  0  0  0  0  0  0  0
   14.3750   64.9140   31.9360 C   0  0  0  0  0  0  0  0  0  0  0  0
   13.1750   64.3100   32.3920 N   0  0  0  0  0  0  0  0  0  0  0  0
   13.6190   63.1160   32.8290 C   0  0  0  0  0  0  0  0  0  0  0  0
   12.9160   62.0680   33.4020 N   0  0  0  0  0  0  0  0  0  0  0  0
   13.5650   60.9890   33.8200 C   0  0  0  0  0  0  0  0  0  0  0  0
   12.8450   59.8320   34.4620 C   0  0  0  0  0  0  0  0  0  0  0  0
   15.0420   60.9090   33.6690 C   0  0  0  0  0  0  0  0  0  0  0  0
   15.6830   61.9430   33.1070 C   0  0  0  0  0  0  0  0  0  0  0  0
   17.1750   61.9420   32.9310 C   0  0  0  0  0  0  0  0  0  0  0  0
   14.9810   63.0530   32.6820 N   0  0  0  0  0  0  0  0  0  0  0  0
   15.4380   64.2370   32.1660 N   0  0  0  0  0  0  0  0  0  0  0  0
   19.2360   67.6050   32.4150 C   0  0  0  0  0  0  0  0  0  0  0  0
   20.3640   67.3360   31.4460 C   0  0  0  0  0  0  0  0  0  0  0  0
   21.4820   64.2290   33.1560 C   0  0  0  0  0  0  0  0  0  0  0  0
   22.8570   64.3360   33.1730 N   0  0  0  0  0  0  0  0  0  0  0  0
   23.4000   65.4410   32.6110 C   0  0  0  0  0  0  0  0  0  0  0  0
   22.6320   66.4180   32.0610 C   0  0  0  0  0  0  0  0  0  0  0  0
   21.2270   66.3010   32.0260 C   0  0  0  0  0  0  0  0  0  0  0  0
   20.6900   65.1530   32.6120 C   0  0  0  0  0  0  0  0  0  0  0  0
   19.9870   63.3380   34.9010 C   0  0  0  0  0  0  0  0  0  0  0  0
   20.9010   62.9510   33.7500 C   0  0  0  0  0  0  0  0  0  0  0  0
   24.9130   65.5740   32.6510 C   0  0  0  0  0  0  0  0  0  0  0  0
   25.5640   64.1990   32.5870 C   0  0  0  0  0  0  0  0  0  0  0  0
  1 26  1  1  0  0  0
  1  8  1  0  0  0  0
  2  1  1  0  0  0  0
  3  2  1  0  0  0  0
  3  5  1  0  0  0  0
  4  3  2  0  0  0  0
  5 14  1  6  0  0  0
  5  6  1  0  0  0  0
  6  8  1  0  0  0  0
  6  7  2  0  0  0  0
  9  1  1  0  0  0  0
  9 10  1  0  0  0  0
 11 10  1  0  0  0  0
 12 11  1  0  0  0  0
 13 12  1  0  0  0  0
 13  9  1  0  0  0  0
 14 15  1  0  0  0  0
 15 25  2  0  0  0  0
 15 16  2  0  0  0  0
 16 17  2  0  0  0  0
 17 18  2  0  0  0  0
 18 19  2  0  0  0  0
 19 20  1  0  0  0  0
 21 19  1  0  0  0  0
 22 21  2  0  0  0  0
 23 22  1  0  0  0  0
 24 17  1  0  0  0  0
 24 22  1  0  0  0  0
 25 24  1  0  0  0  0
 27 32  1  0  0  0  0
 27 26  1  0  0  0  0
 28 29  2  0  0  0  0
 28 35  1  0  0  0  0
 30 36  1  0  0  0  0
 30 29  2  0  0  0  0
 31 30  1  0  0  0  0
 32 31  1  0  0  0  0
 32 33  2  0  0  0  0
 33 28  1  0  0  0  0
 35 34  1  0  0  0  0
 37 36  1  0  0  0  0
M  END
>  <minimizedAffinity>
-8.71757507

$$$$

 OpenBabel12271915123D

 37 41  0  0  1  0  0  0  0  0999 V2000
   16.7400   63.3680   31.7040 C   0  0  2  0  0  0  0  0  0  0  0  0
   15.6170   63.6930   32.5320 O   0  0  0  0  0  0  0  0  0  0  0  0
   15.0240   64.9090   32.5650 C   0  0  0  0  0  0  0  0  0  0  0  0
   14.2420   65.1830   33.4320 O   0  0  0  0  0  0  0  0  0  0  0  0
   15.3850   65.8610   31.4940 C   0  0  1  0  0  0  0  0  0  0  0  0
   16.2450   65.5870   30.4670 C   0  0  0  0  0  0  0  0  0  0  0  0
   16.6160   66.3030   29.5130 O   0  0  0  0  0  0  0  0  0  0  0  0
   16.8800   64.1760   30.4260 C   0  0  0  0  0  0  0  0  0  0  0  0
   16.6040   61.8480   31.3860 C   0  0  0  0  0  0  0  0  0  0  0  0
   15.2960   61.2510   31.8930 C   0  0  0  0  0  0  0  0  0  0  0  0
   15.6440   60.2080   32.9330 C   0  0  0  0  0  0  0  0  0  0  0  0
   17.1050   59.8570   32.7100 C   0  0  0  0  0  0  0  0  0  0  0  0
   17.7340   61.0670   32.0790 C   0  0  0  0  0  0  0  0  0  0  0  0
   14.6800   67.1990   31.6110 C   0  0  0  0  0  0  0  0  0  0  0  0
   15.5160   68.4130   32.1240 C   0  0  0  0  0  0  0  0  0  0  0  0
   14.8920   69.6420   32.4580 N   0  0  0  0  0  0  0  0  0  0  0  0
   15.9500   70.3940   32.8200 C   0  0  0  0  0  0  0  0  0  0  0  0
   15.9910   71.7120   33.2470 N   0  0  0  0  0  0  0  0  0  0  0  0
   17.1580   72.2870   33.5020 C   0  0  0  0  0  0  0  0  0  0  0  0
   17.2520   73.7210   33.9540 C   0  0  0  0  0  0  0  0  0  0  0  0
   18.4170   71.5140   33.3290 C   0  0  0  0  0  0  0  0  0  0  0  0
   18.3330   70.2420   32.9170 C   0  0  0  0  0  0  0  0  0  0  0  0
   19.5590   69.4000   32.7080 C   0  0  0  0  0  0  0  0  0  0  0  0
   17.1030   69.6700   32.6590 N   0  0  0  0  0  0  0  0  0  0  0  0
   16.7970   68.4330   32.1580 N   0  0  0  0  0  0  0  0  0  0  0  0
   18.0630   63.4460   32.5120 C   0  0  0  0  0  0  0  0  0  0  0  0
   19.0230   64.4810   31.9730 C   0  0  0  0  0  0  0  0  0  0  0  0
   22.6290   64.8070   32.8200 C   0  0  0  0  0  0  0  0  0  0  0  0
   22.9100   63.6560   33.5260 N   0  0  0  0  0  0  0  0  0  0  0  0
   21.8940   62.7830   33.7170 C   0  0  0  0  0  0  0  0  0  0  0  0
   20.6480   63.0130   33.2280 C   0  0  0  0  0  0  0  0  0  0  0  0
   20.3540   64.1990   32.5220 C   0  0  0  0  0  0  0  0  0  0  0  0
   21.4180   65.0840   32.3370 C   0  0  0  0  0  0  0  0  0  0  0  0
   25.0840   65.0210   32.7540 C   0  0  0  0  0  0  0  0  0  0  0  0
   23.7790   65.7960   32.6640 C   0  0  0  0  0  0  0  0  0  0  0  0
   22.2060   61.5010   34.4730 C   0  0  0  0  0  0  0  0  0  0  0  0
   23.6940   61.4260   34.7880 C   0  0  0  0  0  0  0  0  0  0  0  0
  1 26  1  1  0  0  0
  1  2  1  0  0  0  0
  2  3  1  0  0  0  0
  3  4  2  0  0  0  0
  5 14  1  6  0  0  0
  5  3  1  0  0  0  0
  6  5  1  0  0  0  0
  7  6  2  0  0  0  0
  8  6  1  0  0  0  0
  8  1  1  0  0  0  0
  9  1  1  0  0  0  0
  9 10  1  0  0  0  0
  9 13  1  0  0  0  0
 10 11  1  0  0  0  0
 12 11  1  0  0  0  0
 13 12  1  0  0  0  0
 14 15  1  0  0  0  0
 15 25  2  0  0  0  0
 15 16  2  0  0  0  0
 16 17  2  0  0  0  0
 17 18  2  0  0  0  0
 18 19  2  0  0  0  0
 19 20  1  0  0  0  0
 21 19  1  0  0  0  0
 22 21  2  0  0  0  0
 23 22  1  0  0  0  0
 24 17  1  0  0  0  0
 24 22  1  0  0  0  0
 25 24  1  0  0  0  0
 27 26  1  0  0  0  0
 27 32  1  0  0  0  0
 28 29  2  0  0  0  0
 29 30  2  0  0  0  0
 30 36  1  0  0  0  0
 31 30  1  0  0  0  0
 32 31  1  0  0  0  0
 33 32  2  0  0  0  0
 33 28  1  0  0  0  0
 35 34  1  0  0  0  0
 35 28  1  0  0  0  0
 36 37  1  0  0  0  0
M  END
>  <minimizedAffinity>
-8.67377853

$$$$

 OpenBabel12271915123D

 37 41  0  0  1  0  0  0  0  0999 V2000
   17.9810   68.6600   31.7430 C   0  0  2  0  0  0  0  0  0  0  0  0
   17.4310   68.1010   30.5440 O   0  0  0  0  0  0  0  0  0  0  0  0
   16.3060   67.3510   30.5000 C   0  0  0  0  0  0  0  0  0  0  0  0
   16.0230   66.7290   29.5140 O   0  0  0  0  0  0  0  0  0  0  0  0
   15.4590   67.3420   31.7110 C   0  0  1  0  0  0  0  0  0  0  0  0
   15.7190   68.0570   32.8480 C   0  0  0  0  0  0  0  0  0  0  0  0
   15.0790   68.1310   33.9180 O   0  0  0  0  0  0  0  0  0  0  0  0
   16.9900   68.9390   32.8590 C   0  0  0  0  0  0  0  0  0  0  0  0
   18.7060   69.9690   31.3040 C   0  0  0  0  0  0  0  0  0  0  0  0
   19.2170   70.7870   32.4850 C   0  0  0  0  0  0  0  0  0  0  0  0
   18.4830   72.1110   32.4720 C   0  0  0  0  0  0  0  0  0  0  0  0
   17.9150   72.2670   31.0720 C   0  0  0  0  0  0  0  0  0  0  0  0
   17.7280   70.8750   30.5390 C   0  0  0  0  0  0  0  0  0  0  0  0
   14.2220   66.4730   31.5790 C   0  0  0  0  0  0  0  0  0  0  0  0
   14.3350   64.9850   32.0330 C   0  0  0  0  0  0  0  0  0  0  0  0
   13.2020   64.2790   32.5140 N   0  0  0  0  0  0  0  0  0  0  0  0
   13.7340   63.0760   32.8050 C   0  0  0  0  0  0  0  0  0  0  0  0
   13.1260   61.9450   33.3260 N   0  0  0  0  0  0  0  0  0  0  0  0
   13.8540   60.8700   33.5950 C   0  0  0  0  0  0  0  0  0  0  0  0
   13.2390   59.6230   34.1760 C   0  0  0  0  0  0  0  0  0  0  0  0
   15.3180   60.8830   33.3350 C   0  0  0  0  0  0  0  0  0  0  0  0
   15.8660   61.9960   32.8280 C   0  0  0  0  0  0  0  0  0  0  0  0
   17.3380   62.0910   32.5480 C   0  0  0  0  0  0  0  0  0  0  0  0
   15.0830   63.1000   32.5580 N   0  0  0  0  0  0  0  0  0  0  0  0
   15.4430   64.3480   32.1240 N   0  0  0  0  0  0  0  0  0  0  0  0
   19.1350   67.7770   32.2850 C   0  0  0  0  0  0  0  0  0  0  0  0
   19.2080   66.4230   31.6190 C   0  0  0  0  0  0  0  0  0  0  0  0
   22.6540   65.3270   32.4810 C   0  0  0  0  0  0  0  0  0  0  0  0
   22.4600   64.2420   33.3100 N   0  0  0  0  0  0  0  0  0  0  0  0
   21.1820   63.8880   33.5780 C   0  0  0  0  0  0  0  0  0  0  0  0
   20.1250   64.5570   33.0480 C   0  0  0  0  0  0  0  0  0  0  0  0
   20.3220   65.6790   32.2150 C   0  0  0  0  0  0  0  0  0  0  0  0
   21.6500   66.0250   31.9530 C   0  0  0  0  0  0  0  0  0  0  0  0
   24.9300   65.2740   33.4280 C   0  0  0  0  0  0  0  0  0  0  0  0
   24.1030   65.7350   32.2380 C   0  0  0  0  0  0  0  0  0  0  0  0
   20.9650   62.6770   34.4710 C   0  0  0  0  0  0  0  0  0  0  0  0
   19.6710   62.8290   35.2590 C   0  0  0  0  0  0  0  0  0  0  0  0
  1 26  1  1  0  0  0
  1  8  1  0  0  0  0
  2  1  1  0  0  0  0
  3  2  1  0  0  0  0
  3  5  1  0  0  0  0
  4  3  2  0  0  0  0
  5 14  1  6  0  0  0
  5  6  1  0  0  0  0
  6  8  1  0  0  0  0
  6  7  2  0  0  0  0
  9  1  1  0  0  0  0
  9 10  1  0  0  0  0
 11 10  1  0  0  0  0
 12 11  1  0  0  0  0
 13 12  1  0  0  0  0
 13  9  1  0  0  0  0
 14 15  1  0  0  0  0
 15 25  2  0  0  0  0
 15 16  2  0  0  0  0
 16 17  2  0  0  0  0
 17 18  2  0  0  0  0
 18 19  2  0  0  0  0
 19 20  1  0  0  0  0
 21 19  1  0  0  0  0
 22 21  2  0  0  0  0
 23 22  1  0  0  0  0
 24 17  1  0  0  0  0
 24 22  1  0  0  0  0
 25 24  1  0  0  0  0
 27 32  1  0  0  0  0
 27 26  1  0  0  0  0
 28 29  2  0  0  0  0
 29 30  2  0  0  0  0
 30 36  1  0  0  0  0
 31 30  1  0  0  0  0
 32 31  1  0  0  0  0
 33 32  2  0  0  0  0
 33 28  1  0  0  0  0
 35 28  1  0  0  0  0
 35 34  1  0  0  0  0
 36 37  1  0  0  0  0
M  END
>  <minimizedAffinity>
-8.65433598

$$$$
