
 OpenBabel12271915203D

 24 27  0  0  0  0  0  0  0  0999 V2000
   22.4160   64.3430   32.2460 N   0  0  0  0  0  0  0  0  0  0  0  0
   21.0140   64.2840   32.4660 C   0  0  0  0  0  0  0  0  0  0  0  0
   20.3820   63.1450   32.7090 N   0  0  0  0  0  0  0  0  0  0  0  0
   19.8320   62.8910   34.0600 C   0  0  0  0  0  0  0  0  0  0  0  0
   18.3640   62.5170   33.9820 C   0  0  0  0  0  0  0  0  0  0  0  0
   18.1330   61.2600   33.1230 N   0  0  0  0  0  0  0  0  0  0  0  0
   18.1010   60.4620   33.7330 H   0  0  0  0  0  0  0  0  0  0  0  0
   17.2550   61.3900   32.6350 H   0  0  0  0  0  0  0  0  0  0  0  0
   19.2280   61.0200   32.0560 C   0  0  0  0  0  0  0  0  0  0  0  0
   19.8220   62.3650   31.5960 C   0  0  0  0  0  0  0  0  0  0  0  0
   20.5080   65.4810   32.4050 N   0  0  0  0  0  0  0  0  0  0  0  0
   21.5220   66.3650   32.1500 C   0  0  0  0  0  0  0  0  0  0  0  0
   21.4960   67.7700   31.9940 C   0  0  0  0  0  0  0  0  0  0  0  0
   22.6990   68.4340   31.7220 C   0  0  0  0  0  0  0  0  0  0  0  0
   23.8760   67.7180   31.6130 C   0  0  0  0  0  0  0  0  0  0  0  0
   23.9110   66.3100   31.7690 C   0  0  0  0  0  0  0  0  0  0  0  0
   22.7210   65.6750   32.0390 C   0  0  0  0  0  0  0  0  0  0  0  0
   23.3720   63.2220   32.1320 C   0  0  0  0  0  0  0  0  0  0  0  0
   23.7770   62.6720   33.5010 C   0  0  0  0  0  0  0  0  0  0  0  0
   24.7640   63.2800   34.2980 C   0  0  0  0  0  0  0  0  0  0  0  0
   25.1420   62.7460   35.5270 C   0  0  0  0  0  0  0  0  0  0  0  0
   24.5480   61.5710   35.9940 C   0  0  0  0  0  0  0  0  0  0  0  0
   23.5650   60.9550   35.2150 C   0  0  0  0  0  0  0  0  0  0  0  0
   23.1950   61.5080   33.9780 C   0  0  0  0  0  0  0  0  0  0  0  0
  1  2  1  0  0  0  0
  2  3  1  0  0  0  0
  3  4  1  0  0  0  0
  5  4  1  0  0  0  0
  6  7  1  0  0  0  0
  6  5  1  0  0  0  0
  8  6  1  0  0  0  0
  9  6  1  0  0  0  0
 10  9  1  0  0  0  0
 10  3  1  0  0  0  0
 11  2  2  0  0  0  0
 12 11  2  0  0  0  0
 13 12  1  0  0  0  0
 14 13  1  0  0  0  0
 15 14  2  0  0  0  0
 15 16  1  0  0  0  0
 16 17  2  0  0  0  0
 17 12  1  0  0  0  0
 17  1  1  0  0  0  0
 18  1  1  0  0  0  0
 18 19  1  0  0  0  0
 19 24  2  0  0  0  0
 19 20  1  0  0  0  0
 20 21  2  0  0  0  0
 21 22  1  0  0  0  0
 23 22  2  0  0  0  0
 24 23  1  0  0  0  0
M  END
>  <minimizedAffinity>
-7.91943836

$$$$

 OpenBabel12271915203D

 24 27  0  0  0  0  0  0  0  0999 V2000
   21.1400   64.1120   33.6200 N   0  0  0  0  0  0  0  0  0  0  0  0
   20.9220   64.9930   32.5260 C   0  0  0  0  0  0  0  0  0  0  0  0
   19.7170   65.4340   32.2000 N   0  0  0  0  0  0  0  0  0  0  0  0
   19.3770   66.8570   32.4250 C   0  0  0  0  0  0  0  0  0  0  0  0
   18.8450   67.4900   31.1520 C   0  0  0  0  0  0  0  0  0  0  0  0
   17.5870   66.7700   30.6310 N   0  0  0  0  0  0  0  0  0  0  0  0
   16.7790   67.2570   30.9770 H   0  0  0  0  0  0  0  0  0  0  0  0
   17.6290   66.7920   29.6190 H   0  0  0  0  0  0  0  0  0  0  0  0
   17.4910   65.2860   31.0610 C   0  0  0  0  0  0  0  0  0  0  0  0
   18.9010   64.6910   31.2280 C   0  0  0  0  0  0  0  0  0  0  0  0
   22.0580   65.2770   31.9580 N   0  0  0  0  0  0  0  0  0  0  0  0
   23.0530   64.6180   32.6280 C   0  0  0  0  0  0  0  0  0  0  0  0
   24.4490   64.5980   32.4070 C   0  0  0  0  0  0  0  0  0  0  0  0
   25.2460   63.8140   33.2510 C   0  0  0  0  0  0  0  0  0  0  0  0
   24.6670   63.0840   34.2720 C   0  0  0  0  0  0  0  0  0  0  0  0
   23.2690   63.1000   34.5000 C   0  0  0  0  0  0  0  0  0  0  0  0
   22.5010   63.8780   33.6640 C   0  0  0  0  0  0  0  0  0  0  0  0
   20.1340   63.4590   34.4820 C   0  0  0  0  0  0  0  0  0  0  0  0
   19.4570   62.2790   33.7810 C   0  0  0  0  0  0  0  0  0  0  0  0
   20.1650   61.1320   33.3780 C   0  0  0  0  0  0  0  0  0  0  0  0
   19.5370   60.0830   32.7120 C   0  0  0  0  0  0  0  0  0  0  0  0
   18.1740   60.1550   32.4160 C   0  0  0  0  0  0  0  0  0  0  0  0
   17.4560   61.2870   32.8100 C   0  0  0  0  0  0  0  0  0  0  0  0
   18.1050   62.3360   33.4820 C   0  0  0  0  0  0  0  0  0  0  0  0
  1 17  1  0  0  0  0
  1 18  1  0  0  0  0
  2  1  1  0  0  0  0
  3  4  1  0  0  0  0
  3  2  1  0  0  0  0
  5  4  1  0  0  0  0
  6  7  1  0  0  0  0
  6  9  1  0  0  0  0
  6  5  1  0  0  0  0
  8  6  1  0  0  0  0
  9 10  1  0  0  0  0
 10  3  1  0  0  0  0
 11  2  2  0  0  0  0
 11 12  2  0  0  0  0
 12 17  1  0  0  0  0
 13 12  1  0  0  0  0
 13 14  1  0  0  0  0
 14 15  2  0  0  0  0
 15 16  1  0  0  0  0
 17 16  2  0  0  0  0
 19 18  1  0  0  0  0
 20 19  2  0  0  0  0
 21 20  1  0  0  0  0
 22 21  2  0  0  0  0
 22 23  1  0  0  0  0
 23 24  2  0  0  0  0
 24 19  1  0  0  0  0
M  END
>  <minimizedAffinity>
-7.50389862

$$$$

 OpenBabel12271915203D

 24 27  0  0  0  0  0  0  0  0999 V2000
   19.9850   64.7780   32.6950 N   0  0  0  0  0  0  0  0  0  0  0  0
   19.2120   63.7620   32.0700 C   0  0  0  0  0  0  0  0  0  0  0  0
   19.3020   62.4880   32.4200 N   0  0  0  0  0  0  0  0  0  0  0  0
   18.1720   61.8460   33.1290 C   0  0  0  0  0  0  0  0  0  0  0  0
   17.7440   60.5740   32.4200 C   0  0  0  0  0  0  0  0  0  0  0  0
   18.8940   59.5540   32.3210 N   0  0  0  0  0  0  0  0  0  0  0  0
   18.8170   58.9160   33.0930 H   0  0  0  0  0  0  0  0  0  0  0  0
   18.7930   59.0770   31.4330 H   0  0  0  0  0  0  0  0  0  0  0  0
   20.3030   60.1930   32.3490 C   0  0  0  0  0  0  0  0  0  0  0  0
   20.2570   61.6050   31.7350 C   0  0  0  0  0  0  0  0  0  0  0  0
   18.4400   64.2910   31.1660 N   0  0  0  0  0  0  0  0  0  0  0  0
   18.6580   65.6420   31.1490 C   0  0  0  0  0  0  0  0  0  0  0  0
   18.0730   66.6550   30.3550 C   0  0  0  0  0  0  0  0  0  0  0  0
   18.4980   67.9770   30.5400 C   0  0  0  0  0  0  0  0  0  0  0  0
   19.4670   68.2690   31.4820 C   0  0  0  0  0  0  0  0  0  0  0  0
   20.0560   67.2590   32.2820 C   0  0  0  0  0  0  0  0  0  0  0  0
   19.6250   65.9670   32.0900 C   0  0  0  0  0  0  0  0  0  0  0  0
   21.0540   64.6240   33.7020 C   0  0  0  0  0  0  0  0  0  0  0  0
   22.4260   64.4240   33.0560 C   0  0  0  0  0  0  0  0  0  0  0  0
   23.1800   63.2480   33.2310 C   0  0  0  0  0  0  0  0  0  0  0  0
   24.4410   63.0980   32.6600 C   0  0  0  0  0  0  0  0  0  0  0  0
   24.9970   64.1310   31.9020 C   0  0  0  0  0  0  0  0  0  0  0  0
   24.2610   65.3050   31.7180 C   0  0  0  0  0  0  0  0  0  0  0  0
   22.9900   65.4400   32.3000 C   0  0  0  0  0  0  0  0  0  0  0  0
  1 18  1  0  0  0  0
  2  3  1  0  0  0  0
  2  1  1  0  0  0  0
  3  4  1  0  0  0  0
  5  4  1  0  0  0  0
  6  9  1  0  0  0  0
  6  5  1  0  0  0  0
  6  7  1  0  0  0  0
  8  6  1  0  0  0  0
 10  9  1  0  0  0  0
 10  3  1  0  0  0  0
 11  2  2  0  0  0  0
 12 11  2  0  0  0  0
 12 17  1  0  0  0  0
 13 14  1  0  0  0  0
 13 12  1  0  0  0  0
 14 15  2  0  0  0  0
 15 16  1  0  0  0  0
 17 16  2  0  0  0  0
 17  1  1  0  0  0  0
 19 20  1  0  0  0  0
 19 18  1  0  0  0  0
 21 20  2  0  0  0  0
 22 21  1  0  0  0  0
 23 22  2  0  0  0  0
 23 24  1  0  0  0  0
 24 19  2  0  0  0  0
M  END
>  <minimizedAffinity>
-7.38927269

$$$$

 OpenBabel12271915203D

 24 27  0  0  0  0  0  0  0  0999 V2000
   21.5900   63.2880   33.5980 N   0  0  0  0  0  0  0  0  0  0  0  0
   20.8520   62.0740   33.6190 C   0  0  0  0  0  0  0  0  0  0  0  0
   19.6370   61.9740   33.0990 N   0  0  0  0  0  0  0  0  0  0  0  0
   19.4360   61.1840   31.8640 C   0  0  0  0  0  0  0  0  0  0  0  0
   18.3400   60.1530   32.0560 C   0  0  0  0  0  0  0  0  0  0  0  0
   16.9960   60.8040   32.4370 N   0  0  0  0  0  0  0  0  0  0  0  0
   16.4580   60.9300   31.5980 H   0  0  0  0  0  0  0  0  0  0  0  0
   16.5340   60.1750   33.0840 H   0  0  0  0  0  0  0  0  0  0  0  0
   17.1410   62.1740   33.1420 C   0  0  0  0  0  0  0  0  0  0  0  0
   18.4570   62.2230   33.9400 C   0  0  0  0  0  0  0  0  0  0  0  0
   21.5570   61.1410   34.1880 N   0  0  0  0  0  0  0  0  0  0  0  0
   22.7600   61.6760   34.5620 C   0  0  0  0  0  0  0  0  0  0  0  0
   23.8660   61.0810   35.2090 C   0  0  0  0  0  0  0  0  0  0  0  0
   24.9850   61.8770   35.4880 C   0  0  0  0  0  0  0  0  0  0  0  0
   24.9920   63.2120   35.1290 C   0  0  0  0  0  0  0  0  0  0  0  0
   23.8870   63.8150   34.4780 C   0  0  0  0  0  0  0  0  0  0  0  0
   22.7990   63.0180   34.2100 C   0  0  0  0  0  0  0  0  0  0  0  0
   21.1460   64.6200   33.1380 C   0  0  0  0  0  0  0  0  0  0  0  0
   22.2590   65.3740   32.4070 C   0  0  0  0  0  0  0  0  0  0  0  0
   23.2850   64.7130   31.7060 C   0  0  0  0  0  0  0  0  0  0  0  0
   24.3070   65.4170   31.0730 C   0  0  0  0  0  0  0  0  0  0  0  0
   24.3410   66.8120   31.1340 C   0  0  0  0  0  0  0  0  0  0  0  0
   23.3290   67.4830   31.8260 C   0  0  0  0  0  0  0  0  0  0  0  0
   22.3050   66.7580   32.4570 C   0  0  0  0  0  0  0  0  0  0  0  0
  1  2  1  0  0  0  0
  1 17  1  0  0  0  0
  2 11  2  0  0  0  0
  3  2  1  0  0  0  0
  3 10  1  0  0  0  0
  4  5  1  0  0  0  0
  4  3  1  0  0  0  0
  5  6  1  0  0  0  0
  6  8  1  0  0  0  0
  6  9  1  0  0  0  0
  7  6  1  0  0  0  0
  9 10  1  0  0  0  0
 11 12  2  0  0  0  0
 12 13  1  0  0  0  0
 13 14  1  0  0  0  0
 15 14  2  0  0  0  0
 16 15  1  0  0  0  0
 17 16  2  0  0  0  0
 17 12  1  0  0  0  0
 18  1  1  0  0  0  0
 19 24  1  0  0  0  0
 19 18  1  0  0  0  0
 20 19  2  0  0  0  0
 21 22  2  0  0  0  0
 21 20  1  0  0  0  0
 22 23  1  0  0  0  0
 23 24  2  0  0  0  0
M  END
>  <minimizedAffinity>
-7.26515818

$$$$

 OpenBabel12271915203D

 24 27  0  0  0  0  0  0  0  0999 V2000
   21.5900   62.0290   32.4520 N   0  0  0  0  0  0  0  0  0  0  0  0
   20.8700   61.0770   33.2220 C   0  0  0  0  0  0  0  0  0  0  0  0
   19.7020   60.5880   32.8330 N   0  0  0  0  0  0  0  0  0  0  0  0
   19.6120   59.1740   32.4040 C   0  0  0  0  0  0  0  0  0  0  0  0
   18.5180   58.4490   33.1660 C   0  0  0  0  0  0  0  0  0  0  0  0
   17.1390   59.1050   32.9600 N   0  0  0  0  0  0  0  0  0  0  0  0
   16.6680   58.6220   32.2160 H   0  0  0  0  0  0  0  0  0  0  0  0
   16.6360   59.0210   33.8360 H   0  0  0  0  0  0  0  0  0  0  0  0
   17.2080   60.6100   32.6060 C   0  0  0  0  0  0  0  0  0  0  0  0
   18.4560   61.2480   33.2450 C   0  0  0  0  0  0  0  0  0  0  0  0
   21.5400   60.7840   34.2980 N   0  0  0  0  0  0  0  0  0  0  0  0
   22.7020   61.5080   34.2930 C   0  0  0  0  0  0  0  0  0  0  0  0
   23.7620   61.5470   35.2280 C   0  0  0  0  0  0  0  0  0  0  0  0
   24.8430   62.4020   34.9760 C   0  0  0  0  0  0  0  0  0  0  0  0
   24.8600   63.1800   33.8330 C   0  0  0  0  0  0  0  0  0  0  0  0
   23.8030   63.1450   32.8910 C   0  0  0  0  0  0  0  0  0  0  0  0
   22.7500   62.2980   33.1530 C   0  0  0  0  0  0  0  0  0  0  0  0
   21.1670   62.7110   31.2120 C   0  0  0  0  0  0  0  0  0  0  0  0
   20.2230   63.8820   31.4950 C   0  0  0  0  0  0  0  0  0  0  0  0
   18.8630   63.8620   31.1340 C   0  0  0  0  0  0  0  0  0  0  0  0
   18.0290   64.9510   31.3720 C   0  0  0  0  0  0  0  0  0  0  0  0
   18.5350   66.1070   31.9710 C   0  0  0  0  0  0  0  0  0  0  0  0
   19.8840   66.1420   32.3360 C   0  0  0  0  0  0  0  0  0  0  0  0
   20.7120   65.0350   32.0910 C   0  0  0  0  0  0  0  0  0  0  0  0
  1 17  1  0  0  0  0
  1  2  1  0  0  0  0
  2 11  2  0  0  0  0
  3  2  1  0  0  0  0
  3 10  1  0  0  0  0
  4  3  1  0  0  0  0
  4  5  1  0  0  0  0
  6  5  1  0  0  0  0
  6  8  1  0  0  0  0
  7  6  1  0  0  0  0
  9  6  1  0  0  0  0
  9 10  1  0  0  0  0
 12 11  2  0  0  0  0
 12 13  1  0  0  0  0
 14 13  1  0  0  0  0
 15 14  2  0  0  0  0
 16 17  2  0  0  0  0
 16 15  1  0  0  0  0
 17 12  1  0  0  0  0
 18 19  1  0  0  0  0
 18  1  1  0  0  0  0
 19 24  2  0  0  0  0
 20 21  2  0  0  0  0
 20 19  1  0  0  0  0
 21 22  1  0  0  0  0
 22 23  2  0  0  0  0
 24 23  1  0  0  0  0
M  END
>  <minimizedAffinity>
-7.06910181

$$$$

 OpenBabel12271915203D

 24 27  0  0  0  0  0  0  0  0999 V2000
   22.4550   62.5730   32.5310 N   0  0  0  0  0  0  0  0  0  0  0  0
   21.2790   62.0840   33.1610 C   0  0  0  0  0  0  0  0  0  0  0  0
   20.0750   62.2370   32.6290 N   0  0  0  0  0  0  0  0  0  0  0  0
   19.3600   61.0560   32.0940 C   0  0  0  0  0  0  0  0  0  0  0  0
   17.9710   60.9490   32.6960 C   0  0  0  0  0  0  0  0  0  0  0  0
   17.1200   62.2000   32.4090 N   0  0  0  0  0  0  0  0  0  0  0  0
   16.5640   62.0230   31.5920 H   0  0  0  0  0  0  0  0  0  0  0  0
   16.5410   62.3590   33.2260 H   0  0  0  0  0  0  0  0  0  0  0  0
   17.9520   63.4840   32.1720 C   0  0  0  0  0  0  0  0  0  0  0  0
   19.2680   63.4170   32.9690 C   0  0  0  0  0  0  0  0  0  0  0  0
   21.5920   61.4820   34.2710 N   0  0  0  0  0  0  0  0  0  0  0  0
   22.9500   61.5430   34.4270 C   0  0  0  0  0  0  0  0  0  0  0  0
   23.7780   61.0420   35.4570 C   0  0  0  0  0  0  0  0  0  0  0  0
   25.1590   61.2600   35.3690 C   0  0  0  0  0  0  0  0  0  0  0  0
   25.6850   61.9490   34.2930 C   0  0  0  0  0  0  0  0  0  0  0  0
   24.8620   62.4520   33.2550 C   0  0  0  0  0  0  0  0  0  0  0  0
   23.5090   62.2270   33.3560 C   0  0  0  0  0  0  0  0  0  0  0  0
   22.5640   63.3960   31.3090 C   0  0  0  0  0  0  0  0  0  0  0  0
   22.8090   64.8710   31.6320 C   0  0  0  0  0  0  0  0  0  0  0  0
   21.7720   65.7440   32.0130 C   0  0  0  0  0  0  0  0  0  0  0  0
   22.0100   67.0910   32.2710 C   0  0  0  0  0  0  0  0  0  0  0  0
   23.2980   67.6140   32.1420 C   0  0  0  0  0  0  0  0  0  0  0  0
   24.3390   66.7610   31.7650 C   0  0  0  0  0  0  0  0  0  0  0  0
   24.0830   65.4040   31.5100 C   0  0  0  0  0  0  0  0  0  0  0  0
  1  2  1  0  0  0  0
  1 17  1  0  0  0  0
  2 11  2  0  0  0  0
  3 10  1  0  0  0  0
  3  2  1  0  0  0  0
  4  3  1  0  0  0  0
  4  5  1  0  0  0  0
  6  5  1  0  0  0  0
  6  8  1  0  0  0  0
  7  6  1  0  0  0  0
  9  6  1  0  0  0  0
  9 10  1  0  0  0  0
 11 12  2  0  0  0  0
 12 13  1  0  0  0  0
 14 13  1  0  0  0  0
 15 14  2  0  0  0  0
 16 17  2  0  0  0  0
 16 15  1  0  0  0  0
 17 12  1  0  0  0  0
 18 19  1  0  0  0  0
 18  1  1  0  0  0  0
 19 20  1  0  0  0  0
 20 21  2  0  0  0  0
 22 21  1  0  0  0  0
 23 22  2  0  0  0  0
 24 19  2  0  0  0  0
 24 23  1  0  0  0  0
M  END
>  <minimizedAffinity>
-7.04133511

$$$$

 OpenBabel12271915203D

 24 27  0  0  0  0  0  0  0  0999 V2000
   21.0500   65.5790   32.1910 N   0  0  0  0  0  0  0  0  0  0  0  0
   19.8380   66.1550   31.7250 C   0  0  0  0  0  0  0  0  0  0  0  0
   19.7120   67.4540   31.5000 N   0  0  0  0  0  0  0  0  0  0  0  0
   19.5870   67.9430   30.1080 C   0  0  0  0  0  0  0  0  0  0  0  0
   18.3620   68.8260   29.9550 C   0  0  0  0  0  0  0  0  0  0  0  0
   18.4100   70.0470   30.8930 N   0  0  0  0  0  0  0  0  0  0  0  0
   18.7900   70.8230   30.3810 H   0  0  0  0  0  0  0  0  0  0  0  0
   17.4590   70.2290   31.1930 H   0  0  0  0  0  0  0  0  0  0  0  0
   19.2650   69.8280   32.1640 C   0  0  0  0  0  0  0  0  0  0  0  0
   19.2390   68.3430   32.5710 C   0  0  0  0  0  0  0  0  0  0  0  0
   18.9440   65.2250   31.5560 N   0  0  0  0  0  0  0  0  0  0  0  0
   19.5050   64.0220   31.8930 C   0  0  0  0  0  0  0  0  0  0  0  0
   18.9560   62.7200   31.8820 C   0  0  0  0  0  0  0  0  0  0  0  0
   19.7620   61.6520   32.2950 C   0  0  0  0  0  0  0  0  0  0  0  0
   21.0640   61.8820   32.6990 C   0  0  0  0  0  0  0  0  0  0  0  0
   21.6220   63.1840   32.7120 C   0  0  0  0  0  0  0  0  0  0  0  0
   20.8160   64.2210   32.3000 C   0  0  0  0  0  0  0  0  0  0  0  0
   22.2900   66.2660   32.6060 C   0  0  0  0  0  0  0  0  0  0  0  0
   23.4640   65.2950   32.7470 C   0  0  0  0  0  0  0  0  0  0  0  0
   23.8880   64.7980   33.9930 C   0  0  0  0  0  0  0  0  0  0  0  0
   24.9790   63.9400   34.1040 C   0  0  0  0  0  0  0  0  0  0  0  0
   25.6920   63.5610   32.9650 C   0  0  0  0  0  0  0  0  0  0  0  0
   25.2830   64.0450   31.7200 C   0  0  0  0  0  0  0  0  0  0  0  0
   24.1800   64.9080   31.6250 C   0  0  0  0  0  0  0  0  0  0  0  0
  1 17  1  0  0  0  0
  1 18  1  0  0  0  0
  2  1  1  0  0  0  0
  3  2  1  0  0  0  0
  3 10  1  0  0  0  0
  4  3  1  0  0  0  0
  5  4  1  0  0  0  0
  5  6  1  0  0  0  0
  6  8  1  0  0  0  0
  6  9  1  0  0  0  0
  7  6  1  0  0  0  0
  9 10  1  0  0  0  0
 11  2  2  0  0  0  0
 11 12  2  0  0  0  0
 12 17  1  0  0  0  0
 13 12  1  0  0  0  0
 13 14  1  0  0  0  0
 14 15  2  0  0  0  0
 15 16  1  0  0  0  0
 17 16  2  0  0  0  0
 18 19  1  0  0  0  0
 19 20  2  0  0  0  0
 20 21  1  0  0  0  0
 22 21  2  0  0  0  0
 23 22  1  0  0  0  0
 24 23  2  0  0  0  0
 24 19  1  0  0  0  0
M  END
>  <minimizedAffinity>
-6.79601431

$$$$

 OpenBabel12271915203D

 24 27  0  0  0  0  0  0  0  0999 V2000
   17.4560   68.8300   31.7330 N   0  0  0  0  0  0  0  0  0  0  0  0
   16.1000   68.4760   31.9710 C   0  0  0  0  0  0  0  0  0  0  0  0
   15.4980   67.4960   31.3140 N   0  0  0  0  0  0  0  0  0  0  0  0
   15.1520   66.2460   32.0270 C   0  0  0  0  0  0  0  0  0  0  0  0
   13.6830   65.9100   31.8430 C   0  0  0  0  0  0  0  0  0  0  0  0
   13.3130   65.7360   30.3580 N   0  0  0  0  0  0  0  0  0  0  0  0
   13.3620   64.7590   30.1330 H   0  0  0  0  0  0  0  0  0  0  0  0
   12.3740   66.0980   30.2420 H   0  0  0  0  0  0  0  0  0  0  0  0
   14.2350   66.5140   29.3870 C   0  0  0  0  0  0  0  0  0  0  0  0
   14.7710   67.7860   30.0700 C   0  0  0  0  0  0  0  0  0  0  0  0
   15.6060   69.2330   32.9070 N   0  0  0  0  0  0  0  0  0  0  0  0
   16.5810   70.1000   33.3200 C   0  0  0  0  0  0  0  0  0  0  0  0
   16.5490   71.1130   34.3050 C   0  0  0  0  0  0  0  0  0  0  0  0
   17.7070   71.8730   34.5190 C   0  0  0  0  0  0  0  0  0  0  0  0
   18.8460   71.6240   33.7780 C   0  0  0  0  0  0  0  0  0  0  0  0
   18.8860   70.6100   32.7900 C   0  0  0  0  0  0  0  0  0  0  0  0
   17.7420   69.8710   32.5950 C   0  0  0  0  0  0  0  0  0  0  0  0
   18.3700   68.3030   30.7000 C   0  0  0  0  0  0  0  0  0  0  0  0
   19.3110   67.2330   31.2580 C   0  0  0  0  0  0  0  0  0  0  0  0
   18.8740   65.9340   31.5770 C   0  0  0  0  0  0  0  0  0  0  0  0
   19.7380   64.9840   32.1140 C   0  0  0  0  0  0  0  0  0  0  0  0
   21.0730   65.3110   32.3640 C   0  0  0  0  0  0  0  0  0  0  0  0
   21.5230   66.5960   32.0520 C   0  0  0  0  0  0  0  0  0  0  0  0
   20.6390   67.5420   31.5090 C   0  0  0  0  0  0  0  0  0  0  0  0
  1  2  1  0  0  0  0
  1 17  1  0  0  0  0
  2 11  2  0  0  0  0
  3  2  1  0  0  0  0
  3  4  1  0  0  0  0
  5  4  1  0  0  0  0
  6  5  1  0  0  0  0
  7  6  1  0  0  0  0
  8  6  1  0  0  0  0
  9 10  1  0  0  0  0
  9  6  1  0  0  0  0
 10  3  1  0  0  0  0
 11 12  2  0  0  0  0
 12 13  1  0  0  0  0
 13 14  1  0  0  0  0
 15 14  2  0  0  0  0
 16 15  1  0  0  0  0
 17 16  2  0  0  0  0
 17 12  1  0  0  0  0
 18 19  1  0  0  0  0
 18  1  1  0  0  0  0
 19 24  2  0  0  0  0
 19 20  1  0  0  0  0
 20 21  2  0  0  0  0
 21 22  1  0  0  0  0
 23 22  2  0  0  0  0
 24 23  1  0  0  0  0
M  END
>  <minimizedAffinity>
-6.73816872

$$$$

 OpenBabel12271915203D

 24 27  0  0  0  0  0  0  0  0999 V2000
   21.2510   64.3220   32.2170 N   0  0  0  0  0  0  0  0  0  0  0  0
   20.7930   63.2010   32.9600 C   0  0  0  0  0  0  0  0  0  0  0  0
   19.6340   62.6110   32.7090 N   0  0  0  0  0  0  0  0  0  0  0  0
   19.6210   61.2560   32.1130 C   0  0  0  0  0  0  0  0  0  0  0  0
   18.7710   60.3110   32.9420 C   0  0  0  0  0  0  0  0  0  0  0  0
   17.3150   60.7990   33.0620 N   0  0  0  0  0  0  0  0  0  0  0  0
   16.7710   60.3470   32.3490 H   0  0  0  0  0  0  0  0  0  0  0  0
   16.9930   60.5490   33.9900 H   0  0  0  0  0  0  0  0  0  0  0  0
   17.1530   62.3310   32.9110 C   0  0  0  0  0  0  0  0  0  0  0  0
   18.4200   63.0500   33.4120 C   0  0  0  0  0  0  0  0  0  0  0  0
   21.6770   62.8770   33.8580 N   0  0  0  0  0  0  0  0  0  0  0  0
   22.7320   63.7430   33.7570 C   0  0  0  0  0  0  0  0  0  0  0  0
   23.9340   63.8140   34.4970 C   0  0  0  0  0  0  0  0  0  0  0  0
   24.8510   64.8260   34.1850 C   0  0  0  0  0  0  0  0  0  0  0  0
   24.5740   65.7260   33.1740 C   0  0  0  0  0  0  0  0  0  0  0  0
   23.3720   65.6610   32.4260 C   0  0  0  0  0  0  0  0  0  0  0  0
   22.4840   64.6590   32.7440 C   0  0  0  0  0  0  0  0  0  0  0  0
   20.5360   65.0810   31.1710 C   0  0  0  0  0  0  0  0  0  0  0  0
   20.0050   66.4170   31.6940 C   0  0  0  0  0  0  0  0  0  0  0  0
   18.6790   66.5840   32.1340 C   0  0  0  0  0  0  0  0  0  0  0  0
   18.2060   67.8160   32.5760 C   0  0  0  0  0  0  0  0  0  0  0  0
   19.0470   68.9310   32.5790 C   0  0  0  0  0  0  0  0  0  0  0  0
   20.3670   68.7820   32.1460 C   0  0  0  0  0  0  0  0  0  0  0  0
   20.8290   67.5320   31.7040 C   0  0  0  0  0  0  0  0  0  0  0  0
  1 17  1  0  0  0  0
  1  2  1  0  0  0  0
  2 11  2  0  0  0  0
  3  2  1  0  0  0  0
  3 10  1  0  0  0  0
  4  3  1  0  0  0  0
  4  5  1  0  0  0  0
  5  6  1  0  0  0  0
  6  8  1  0  0  0  0
  7  6  1  0  0  0  0
  9  6  1  0  0  0  0
  9 10  1  0  0  0  0
 12 11  2  0  0  0  0
 12 13  1  0  0  0  0
 14 13  1  0  0  0  0
 15 14  2  0  0  0  0
 16 17  2  0  0  0  0
 16 15  1  0  0  0  0
 17 12  1  0  0  0  0
 18 19  1  0  0  0  0
 18  1  1  0  0  0  0
 19 24  2  0  0  0  0
 19 20  1  0  0  0  0
 20 21  2  0  0  0  0
 21 22  1  0  0  0  0
 23 22  2  0  0  0  0
 24 23  1  0  0  0  0
M  END
>  <minimizedAffinity>
-6.64926434

$$$$
