
 OpenBabel12271915233D

 32 35  0  0  1  0  0  0  0  0999 V2000
   20.4020   62.5240   33.5610 C   0  0  0  0  0  0  0  0  0  0  0  0
   20.3530   63.8840   33.2380 C   0  0  0  0  0  0  0  0  0  0  0  0
   19.5000   64.3500   32.2270 C   0  0  0  0  0  0  0  0  0  0  0  0
   18.7140   63.3820   31.6030 C   0  0  0  0  0  0  0  0  0  0  0  0
   18.7400   62.0690   31.9230 N   0  0  0  0  0  0  0  0  0  0  0  0
   19.5720   61.6430   32.8880 C   0  0  0  0  0  0  0  0  0  0  0  0
   19.4420   65.7690   31.8830 C   0  0  0  0  0  0  0  0  0  0  0  0
   20.5370   66.6270   31.9740 C   0  0  0  0  0  0  0  0  0  0  0  0
   20.4570   68.0020   31.6520 C   0  0  0  0  0  0  0  0  0  0  0  0
   19.2400   68.5080   31.2110 C   0  0  0  0  0  0  0  0  0  0  0  0
   18.8440   69.7460   30.8280 N   0  0  0  0  0  0  0  0  0  0  0  0
   19.3850   70.6030   30.7810 H   0  0  0  0  0  0  0  0  0  0  0  0
   17.5470   69.7420   30.4790 N   0  0  0  0  0  0  0  0  0  0  0  0
   17.1100   68.4930   30.6260 C   0  0  0  0  0  0  0  0  0  0  0  0
   15.7110   68.0870   30.3350 C   0  0  0  0  0  0  0  0  0  0  0  0
   18.1330   67.6820   31.0960 C   0  0  0  0  0  0  0  0  0  0  0  0
   18.2340   66.3320   31.4390 C   0  0  0  0  0  0  0  0  0  0  0  0
   21.3010   62.2040   34.5400 O   0  0  0  0  0  0  0  0  0  0  0  0
   22.3120   61.2520   34.1990 C   0  0  0  0  0  0  0  0  0  0  0  0
   23.4900   61.3220   35.1870 C   0  0  1  0  0  0  0  0  0  0  0  0
   23.6970   59.9930   35.8390 N   0  0  0  0  0  0  0  0  0  0  0  0
   24.0750   59.3120   35.1600 H   0  0  0  0  0  0  0  0  0  0  0  0
   24.3710   60.0620   36.6100 H   0  0  0  0  0  0  0  0  0  0  0  0
   22.8170   59.6240   36.2400 H   0  0  0  0  0  0  0  0  0  0  0  0
   24.8210   61.7340   34.5520 C   0  0  0  0  0  0  0  0  0  0  0  0
   24.7210   63.0460   33.8380 C   0  0  0  0  0  0  0  0  0  0  0  0
   25.1740   63.1830   32.5260 C   0  0  0  0  0  0  0  0  0  0  0  0
   25.0240   64.3980   31.8670 C   0  0  0  0  0  0  0  0  0  0  0  0
   24.4430   65.4870   32.5020 C   0  0  0  0  0  0  0  0  0  0  0  0
   24.2780   67.1560   31.5980 Br  0  0  0  0  0  0  0  0  0  0  0  0
   23.9980   65.3540   33.8050 C   0  0  0  0  0  0  0  0  0  0  0  0
   24.1340   64.1400   34.4800 C   0  0  0  0  0  0  0  0  0  0  0  0
  1 18  1  0  0  0  0
  2  1  1  0  0  0  0
  3  2  2  0  0  0  0
  4  5  2  0  0  0  0
  4  3  1  0  0  0  0
  5  6  1  0  0  0  0
  6  1  2  0  0  0  0
  7  8  1  0  0  0  0
  7  3  1  0  0  0  0
  9  8  2  0  0  0  0
 10  9  1  0  0  0  0
 11 10  1  0  0  0  0
 12 11  1  0  0  0  0
 13 14  2  0  0  0  0
 13 11  1  0  0  0  0
 14 16  1  0  0  0  0
 15 14  1  0  0  0  0
 16 10  2  0  0  0  0
 16 17  1  0  0  0  0
 17  7  2  0  0  0  0
 19 18  1  0  0  0  0
 20 19  1  6  0  0  0
 20 21  1  0  0  0  0
 21 24  1  0  0  0  0
 21 23  1  0  0  0  0
 22 21  1  0  0  0  0
 25 20  1  0  0  0  0
 26 32  1  0  0  0  0
 26 25  1  0  0  0  0
 27 26  2  0  0  0  0
 28 29  2  0  0  0  0
 28 27  1  0  0  0  0
 29 31  1  0  0  0  0
 30 29  1  0  0  0  0
 31 32  2  0  0  0  0
M  END
>  <minimizedAffinity>
-9.31934261

$$$$

 OpenBabel12271915233D

 32 35  0  0  1  0  0  0  0  0999 V2000
   21.9220   67.0110   31.8960 C   0  0  0  0  0  0  0  0  0  0  0  0
   22.5360   65.8200   32.2990 C   0  0  0  0  0  0  0  0  0  0  0  0
   23.9320   65.7300   32.3920 C   0  0  0  0  0  0  0  0  0  0  0  0
   24.6370   66.8930   32.0800 C   0  0  0  0  0  0  0  0  0  0  0  0
   24.0500   68.0520   31.7100 N   0  0  0  0  0  0  0  0  0  0  0  0
   22.7120   68.1130   31.6170 C   0  0  0  0  0  0  0  0  0  0  0  0
   24.5830   64.4910   32.8120 C   0  0  0  0  0  0  0  0  0  0  0  0
   24.2520   63.8090   33.9820 C   0  0  0  0  0  0  0  0  0  0  0  0
   24.9050   62.6190   34.3810 C   0  0  0  0  0  0  0  0  0  0  0  0
   25.9020   62.1050   33.5610 C   0  0  0  0  0  0  0  0  0  0  0  0
   26.6940   61.0100   33.6530 N   0  0  0  0  0  0  0  0  0  0  0  0
   26.7210   60.3010   34.3790 H   0  0  0  0  0  0  0  0  0  0  0  0
   27.5210   60.9320   32.5970 N   0  0  0  0  0  0  0  0  0  0  0  0
   27.2500   61.9740   31.8150 C   0  0  0  0  0  0  0  0  0  0  0  0
   27.9650   62.2350   30.5390 C   0  0  0  0  0  0  0  0  0  0  0  0
   26.2490   62.7490   32.3830 C   0  0  0  0  0  0  0  0  0  0  0  0
   25.6020   63.9330   32.0230 C   0  0  0  0  0  0  0  0  0  0  0  0
   20.5590   66.9480   31.8150 O   0  0  0  0  0  0  0  0  0  0  0  0
   19.9160   67.9300   30.9980 C   0  0  0  0  0  0  0  0  0  0  0  0
   18.9040   68.7500   31.8160 C   0  0  1  0  0  0  0  0  0  0  0  0
   17.9530   67.8390   32.5240 N   0  0  0  0  0  0  0  0  0  0  0  0
   18.4350   67.3380   33.2890 H   0  0  0  0  0  0  0  0  0  0  0  0
   17.1800   68.3680   32.9450 H   0  0  0  0  0  0  0  0  0  0  0  0
   17.5310   67.1510   31.8770 H   0  0  0  0  0  0  0  0  0  0  0  0
   19.5370   69.6620   32.8700 C   0  0  0  0  0  0  0  0  0  0  0  0
   18.8880   71.0110   32.9090 C   0  0  0  0  0  0  0  0  0  0  0  0
   17.9660   71.3330   33.9040 C   0  0  0  0  0  0  0  0  0  0  0  0
   17.4150   72.6090   33.9490 C   0  0  0  0  0  0  0  0  0  0  0  0
   17.7580   73.5670   33.0050 C   0  0  0  0  0  0  0  0  0  0  0  0
   16.9680   75.3000   33.0580 Br  0  0  0  0  0  0  0  0  0  0  0  0
   18.6690   73.2480   32.0140 C   0  0  0  0  0  0  0  0  0  0  0  0
   19.2380   71.9750   31.9580 C   0  0  0  0  0  0  0  0  0  0  0  0
  1  2  2  0  0  0  0
  2  3  1  0  0  0  0
  3  7  1  0  0  0  0
  4  3  2  0  0  0  0
  5  4  1  0  0  0  0
  6  5  2  0  0  0  0
  6  1  1  0  0  0  0
  7  8  2  0  0  0  0
  8  9  1  0  0  0  0
 10 11  1  0  0  0  0
 10  9  2  0  0  0  0
 11 12  1  0  0  0  0
 13 11  1  0  0  0  0
 14 16  1  0  0  0  0
 14 13  2  0  0  0  0
 15 14  1  0  0  0  0
 16 10  1  0  0  0  0
 17 16  2  0  0  0  0
 17  7  1  0  0  0  0
 18  1  1  0  0  0  0
 19 18  1  0  0  0  0
 20 19  1  1  0  0  0
 20 21  1  0  0  0  0
 20 25  1  0  0  0  0
 21 23  1  0  0  0  0
 21 22  1  0  0  0  0
 24 21  1  0  0  0  0
 25 26  1  0  0  0  0
 26 27  2  0  0  0  0
 27 28  1  0  0  0  0
 29 30  1  0  0  0  0
 29 28  2  0  0  0  0
 31 29  1  0  0  0  0
 32 31  2  0  0  0  0
 32 26  1  0  0  0  0
M  END
>  <minimizedAffinity>
-9.30756187

$$$$

 OpenBabel12271915233D

 32 35  0  0  1  0  0  0  0  0999 V2000
   20.0530   61.7820   33.6320 C   0  0  0  0  0  0  0  0  0  0  0  0
   19.6770   63.0250   33.1140 C   0  0  0  0  0  0  0  0  0  0  0  0
   18.6500   63.1240   32.1640 C   0  0  0  0  0  0  0  0  0  0  0  0
   18.0380   61.9230   31.8040 C   0  0  0  0  0  0  0  0  0  0  0  0
   18.3820   60.7210   32.3160 N   0  0  0  0  0  0  0  0  0  0  0  0
   19.3760   60.6480   33.2170 C   0  0  0  0  0  0  0  0  0  0  0  0
   18.2500   64.4190   31.6170 C   0  0  0  0  0  0  0  0  0  0  0  0
   17.0420   64.6320   30.9530 C   0  0  0  0  0  0  0  0  0  0  0  0
   16.6790   65.8890   30.4160 C   0  0  0  0  0  0  0  0  0  0  0  0
   17.5570   66.9550   30.5740 C   0  0  0  0  0  0  0  0  0  0  0  0
   17.5050   68.2530   30.1930 N   0  0  0  0  0  0  0  0  0  0  0  0
   16.7730   68.7400   29.6860 H   0  0  0  0  0  0  0  0  0  0  0  0
   18.6120   68.9070   30.5820 N   0  0  0  0  0  0  0  0  0  0  0  0
   19.3740   68.0280   31.2290 C   0  0  0  0  0  0  0  0  0  0  0  0
   20.6930   68.3790   31.8150 C   0  0  0  0  0  0  0  0  0  0  0  0
   18.7610   66.7830   31.2410 C   0  0  0  0  0  0  0  0  0  0  0  0
   19.1040   65.5270   31.7450 C   0  0  0  0  0  0  0  0  0  0  0  0
   21.0900   61.8270   34.5220 O   0  0  0  0  0  0  0  0  0  0  0  0
   22.3200   61.2260   34.1090 C   0  0  0  0  0  0  0  0  0  0  0  0
   23.3680   61.2860   35.2340 C   0  0  1  0  0  0  0  0  0  0  0  0
   23.5670   59.9290   35.8280 N   0  0  0  0  0  0  0  0  0  0  0  0
   24.0580   59.3110   35.1600 H   0  0  0  0  0  0  0  0  0  0  0  0
   24.1410   59.9790   36.6770 H   0  0  0  0  0  0  0  0  0  0  0  0
   22.6660   59.4960   36.0970 H   0  0  0  0  0  0  0  0  0  0  0  0
   24.7410   61.7990   34.7890 C   0  0  0  0  0  0  0  0  0  0  0  0
   24.6400   63.0660   33.9980 C   0  0  0  0  0  0  0  0  0  0  0  0
   24.0050   64.1900   34.5250 C   0  0  0  0  0  0  0  0  0  0  0  0
   23.9690   65.3710   33.7920 C   0  0  0  0  0  0  0  0  0  0  0  0
   24.5420   65.4440   32.5300 C   0  0  0  0  0  0  0  0  0  0  0  0
   24.4510   67.0570   31.5220 Br  0  0  0  0  0  0  0  0  0  0  0  0
   25.1670   64.3280   32.0030 C   0  0  0  0  0  0  0  0  0  0  0  0
   25.2200   63.1370   32.7280 C   0  0  0  0  0  0  0  0  0  0  0  0
  1 18  1  0  0  0  0
  2  1  2  0  0  0  0
  3  2  1  0  0  0  0
  4  3  2  0  0  0  0
  4  5  1  0  0  0  0
  5  6  2  0  0  0  0
  6  1  1  0  0  0  0
  7 17  1  0  0  0  0
  7  3  1  0  0  0  0
  8  7  2  0  0  0  0
  9 10  2  0  0  0  0
  9  8  1  0  0  0  0
 10 16  1  0  0  0  0
 11 10  1  0  0  0  0
 11 13  1  0  0  0  0
 12 11  1  0  0  0  0
 13 14  2  0  0  0  0
 14 16  1  0  0  0  0
 14 15  1  0  0  0  0
 16 17  2  0  0  0  0
 19 18  1  0  0  0  0
 20 19  1  6  0  0  0
 20 21  1  0  0  0  0
 21 24  1  0  0  0  0
 21 23  1  0  0  0  0
 22 21  1  0  0  0  0
 25 20  1  0  0  0  0
 26 27  1  0  0  0  0
 26 25  1  0  0  0  0
 28 27  2  0  0  0  0
 29 28  1  0  0  0  0
 30 29  1  0  0  0  0
 31 29  2  0  0  0  0
 31 32  1  0  0  0  0
 32 26  2  0  0  0  0
M  END
>  <minimizedAffinity>
-8.86405468

$$$$

 OpenBabel12271915233D

 32 35  0  0  1  0  0  0  0  0999 V2000
   23.7550   66.0080   31.6560 C   0  0  0  0  0  0  0  0  0  0  0  0
   22.3580   66.0760   31.7050 C   0  0  0  0  0  0  0  0  0  0  0  0
   21.7060   67.3120   31.8270 C   0  0  0  0  0  0  0  0  0  0  0  0
   22.5340   68.4330   31.8730 C   0  0  0  0  0  0  0  0  0  0  0  0
   23.8830   68.3760   31.8050 N   0  0  0  0  0  0  0  0  0  0  0  0
   24.4870   67.1820   31.6990 C   0  0  0  0  0  0  0  0  0  0  0  0
   20.2480   67.3940   31.8780 C   0  0  0  0  0  0  0  0  0  0  0  0
   19.4050   66.3710   31.4460 C   0  0  0  0  0  0  0  0  0  0  0  0
   17.9960   66.4760   31.4880 C   0  0  0  0  0  0  0  0  0  0  0  0
   17.4340   67.6400   31.9990 C   0  0  0  0  0  0  0  0  0  0  0  0
   16.1520   68.0400   32.1780 N   0  0  0  0  0  0  0  0  0  0  0  0
   15.2930   67.5440   31.9650 H   0  0  0  0  0  0  0  0  0  0  0  0
   16.1100   69.2700   32.7170 N   0  0  0  0  0  0  0  0  0  0  0  0
   17.3700   69.6570   32.8980 C   0  0  0  0  0  0  0  0  0  0  0  0
   17.7360   70.9750   33.4790 C   0  0  0  0  0  0  0  0  0  0  0  0
   18.2410   68.6730   32.4520 C   0  0  0  0  0  0  0  0  0  0  0  0
   19.6290   68.5520   32.3800 C   0  0  0  0  0  0  0  0  0  0  0  0
   24.2580   64.7390   31.5710 O   0  0  0  0  0  0  0  0  0  0  0  0
   25.0660   64.2930   32.6640 C   0  0  0  0  0  0  0  0  0  0  0  0
   24.5630   62.9430   33.2040 C   0  0  1  0  0  0  0  0  0  0  0  0
   25.7030   62.1550   33.7650 N   0  0  0  0  0  0  0  0  0  0  0  0
   26.0420   62.5830   34.6430 H   0  0  0  0  0  0  0  0  0  0  0  0
   25.4140   61.1940   33.9840 H   0  0  0  0  0  0  0  0  0  0  0  0
   26.4870   62.0870   33.0920 H   0  0  0  0  0  0  0  0  0  0  0  0
   23.5020   63.0590   34.3020 C   0  0  0  0  0  0  0  0  0  0  0  0
   22.1120   62.9810   33.7510 C   0  0  0  0  0  0  0  0  0  0  0  0
   21.0390   63.5570   34.4290 C   0  0  0  0  0  0  0  0  0  0  0  0
   19.7660   63.5150   33.8720 C   0  0  0  0  0  0  0  0  0  0  0  0
   19.5410   62.8900   32.6530 C   0  0  0  0  0  0  0  0  0  0  0  0
   17.7850   62.8080   31.9200 Br  0  0  0  0  0  0  0  0  0  0  0  0
   20.6040   62.3130   31.9810 C   0  0  0  0  0  0  0  0  0  0  0  0
   21.8900   62.3530   32.5210 C   0  0  0  0  0  0  0  0  0  0  0  0
  1  6  2  0  0  0  0
  1  2  1  0  0  0  0
  2  3  2  0  0  0  0
  3  4  1  0  0  0  0
  3  7  1  0  0  0  0
  5  4  2  0  0  0  0
  6  5  1  0  0  0  0
  7 17  2  0  0  0  0
  8  9  2  0  0  0  0
  8  7  1  0  0  0  0
  9 10  1  0  0  0  0
 10 11  1  0  0  0  0
 10 16  2  0  0  0  0
 11 13  1  0  0  0  0
 12 11  1  0  0  0  0
 13 14  2  0  0  0  0
 14 15  1  0  0  0  0
 16 14  1  0  0  0  0
 17 16  1  0  0  0  0
 18  1  1  0  0  0  0
 18 19  1  0  0  0  0
 20 19  1  1  0  0  0
 20 21  1  0  0  0  0
 20 25  1  0  0  0  0
 21 23  1  0  0  0  0
 21 22  1  0  0  0  0
 24 21  1  0  0  0  0
 26 25  1  0  0  0  0
 26 27  2  0  0  0  0
 28 27  1  0  0  0  0
 29 28  2  0  0  0  0
 30 29  1  0  0  0  0
 31 32  2  0  0  0  0
 31 29  1  0  0  0  0
 32 26  1  0  0  0  0
M  END
>  <minimizedAffinity>
-8.86211395

$$$$

 OpenBabel12271915233D

 32 35  0  0  1  0  0  0  0  0999 V2000
   21.9080   67.4820   31.5820 C   0  0  0  0  0  0  0  0  0  0  0  0
   22.4110   66.2620   32.0460 C   0  0  0  0  0  0  0  0  0  0  0  0
   23.7660   66.1290   32.3840 C   0  0  0  0  0  0  0  0  0  0  0  0
   24.5420   67.2800   32.2460 C   0  0  0  0  0  0  0  0  0  0  0  0
   24.0580   68.4670   31.8190 N   0  0  0  0  0  0  0  0  0  0  0  0
   22.7600   68.5700   31.4900 C   0  0  0  0  0  0  0  0  0  0  0  0
   24.3020   64.8590   32.8700 C   0  0  0  0  0  0  0  0  0  0  0  0
   23.8300   64.2140   34.0130 C   0  0  0  0  0  0  0  0  0  0  0  0
   24.3720   62.9930   34.4760 C   0  0  0  0  0  0  0  0  0  0  0  0
   25.4040   62.4090   33.7510 C   0  0  0  0  0  0  0  0  0  0  0  0
   26.1170   61.2700   33.9200 N   0  0  0  0  0  0  0  0  0  0  0  0
   26.0380   60.5700   34.6520 H   0  0  0  0  0  0  0  0  0  0  0  0
   27.0260   61.1290   32.9410 N   0  0  0  0  0  0  0  0  0  0  0  0
   26.8870   62.1750   32.1300 C   0  0  0  0  0  0  0  0  0  0  0  0
   27.7240   62.3750   30.9190 C   0  0  0  0  0  0  0  0  0  0  0  0
   25.8900   63.0160   32.6020 C   0  0  0  0  0  0  0  0  0  0  0  0
   25.3490   64.2310   32.1770 C   0  0  0  0  0  0  0  0  0  0  0  0
   20.5800   67.4610   31.2560 O   0  0  0  0  0  0  0  0  0  0  0  0
   19.6810   68.0800   32.1800 C   0  0  0  0  0  0  0  0  0  0  0  0
   18.4170   67.2250   32.3750 C   0  0  1  0  0  0  0  0  0  0  0  0
   17.2530   68.0950   32.7260 N   0  0  0  0  0  0  0  0  0  0  0  0
   16.9630   68.6570   31.9080 H   0  0  0  0  0  0  0  0  0  0  0  0
   16.4440   67.5300   33.0110 H   0  0  0  0  0  0  0  0  0  0  0  0
   17.4740   68.7270   33.5150 H   0  0  0  0  0  0  0  0  0  0  0  0
   18.0190   66.3990   31.1470 C   0  0  0  0  0  0  0  0  0  0  0  0
   18.0030   64.9310   31.4390 C   0  0  0  0  0  0  0  0  0  0  0  0
   16.9070   64.1440   31.0880 C   0  0  0  0  0  0  0  0  0  0  0  0
   16.9360   62.7740   31.3230 C   0  0  0  0  0  0  0  0  0  0  0  0
   18.0380   62.1760   31.9190 C   0  0  0  0  0  0  0  0  0  0  0  0
   18.0490   60.3040   32.2690 Br  0  0  0  0  0  0  0  0  0  0  0  0
   19.1240   62.9570   32.2730 C   0  0  0  0  0  0  0  0  0  0  0  0
   19.1150   64.3320   32.0370 C   0  0  0  0  0  0  0  0  0  0  0  0
  1  2  1  0  0  0  0
  2  3  2  0  0  0  0
  3  7  1  0  0  0  0
  4  3  1  0  0  0  0
  5  4  2  0  0  0  0
  6  1  2  0  0  0  0
  6  5  1  0  0  0  0
  7  8  2  0  0  0  0
  8  9  1  0  0  0  0
 10 11  1  0  0  0  0
 10  9  2  0  0  0  0
 11 12  1  0  0  0  0
 13 11  1  0  0  0  0
 14 16  1  0  0  0  0
 14 13  2  0  0  0  0
 15 14  1  0  0  0  0
 16 10  1  0  0  0  0
 17 16  2  0  0  0  0
 17  7  1  0  0  0  0
 18  1  1  0  0  0  0
 18 19  1  0  0  0  0
 19 20  1  0  0  0  0
 20 25  1  6  0  0  0
 20 21  1  0  0  0  0
 21 23  1  0  0  0  0
 21 24  1  0  0  0  0
 22 21  1  0  0  0  0
 25 26  1  0  0  0  0
 26 32  2  0  0  0  0
 27 28  2  0  0  0  0
 27 26  1  0  0  0  0
 28 29  1  0  0  0  0
 29 30  1  0  0  0  0
 29 31  2  0  0  0  0
 32 31  1  0  0  0  0
M  END
>  <minimizedAffinity>
-8.84093285

$$$$

 OpenBabel12271915233D

 32 35  0  0  1  0  0  0  0  0999 V2000
   19.5010   65.7350   31.8780 C   0  0  0  0  0  0  0  0  0  0  0  0
   20.5800   65.0290   32.4190 C   0  0  0  0  0  0  0  0  0  0  0  0
   20.5010   63.6430   32.6190 C   0  0  0  0  0  0  0  0  0  0  0  0
   19.3050   63.0410   32.2300 C   0  0  0  0  0  0  0  0  0  0  0  0
   18.2650   63.7140   31.6880 N   0  0  0  0  0  0  0  0  0  0  0  0
   18.3580   65.0420   31.5150 C   0  0  0  0  0  0  0  0  0  0  0  0
   21.6240   62.8960   33.1830 C   0  0  0  0  0  0  0  0  0  0  0  0
   21.4770   61.9010   34.1480 C   0  0  0  0  0  0  0  0  0  0  0  0
   22.5780   61.2000   34.6930 C   0  0  0  0  0  0  0  0  0  0  0  0
   23.8520   61.5080   34.2320 C   0  0  0  0  0  0  0  0  0  0  0  0
   25.0810   61.0280   34.5380 N   0  0  0  0  0  0  0  0  0  0  0  0
   25.3370   60.3040   35.2030 H   0  0  0  0  0  0  0  0  0  0  0  0
   26.0270   61.6490   33.8140 N   0  0  0  0  0  0  0  0  0  0  0  0
   25.4030   62.5240   33.0300 C   0  0  0  0  0  0  0  0  0  0  0  0
   26.1190   63.4080   32.0750 C   0  0  0  0  0  0  0  0  0  0  0  0
   24.0350   62.4820   33.2630 C   0  0  0  0  0  0  0  0  0  0  0  0
   22.9330   63.1730   32.7550 C   0  0  0  0  0  0  0  0  0  0  0  0
   19.7010   67.0830   31.7700 O   0  0  0  0  0  0  0  0  0  0  0  0
   18.7110   67.8250   31.0520 C   0  0  0  0  0  0  0  0  0  0  0  0
   18.0520   68.8820   31.9560 C   0  0  1  0  0  0  0  0  0  0  0  0
   17.0420   68.2380   32.8510 N   0  0  0  0  0  0  0  0  0  0  0  0
   17.5100   67.6580   33.5670 H   0  0  0  0  0  0  0  0  0  0  0  0
   16.4850   68.9450   33.3460 H   0  0  0  0  0  0  0  0  0  0  0  0
   16.3780   67.6520   32.3150 H   0  0  0  0  0  0  0  0  0  0  0  0
   19.0330   69.6480   32.8490 C   0  0  0  0  0  0  0  0  0  0  0  0
   18.6800   71.0990   32.9570 C   0  0  0  0  0  0  0  0  0  0  0  0
   19.1820   72.0280   32.0470 C   0  0  0  0  0  0  0  0  0  0  0  0
   18.7990   73.3610   32.1380 C   0  0  0  0  0  0  0  0  0  0  0  0
   17.9340   73.7880   33.1360 C   0  0  0  0  0  0  0  0  0  0  0  0
   17.4470   75.6240   33.2700 Br  0  0  0  0  0  0  0  0  0  0  0  0
   17.4390   72.8680   34.0430 C   0  0  0  0  0  0  0  0  0  0  0  0
   17.8060   71.5240   33.9620 C   0  0  0  0  0  0  0  0  0  0  0  0
  1  2  2  0  0  0  0
  2  3  1  0  0  0  0
  3  7  1  0  0  0  0
  4  3  2  0  0  0  0
  5  4  1  0  0  0  0
  6  5  2  0  0  0  0
  6  1  1  0  0  0  0
  7  8  1  0  0  0  0
  8  9  2  0  0  0  0
 10 11  1  0  0  0  0
 10  9  1  0  0  0  0
 11 12  1  0  0  0  0
 13 11  1  0  0  0  0
 14 16  1  0  0  0  0
 14 13  2  0  0  0  0
 15 14  1  0  0  0  0
 16 10  2  0  0  0  0
 17  7  2  0  0  0  0
 17 16  1  0  0  0  0
 18  1  1  0  0  0  0
 19 18  1  0  0  0  0
 20 19  1  1  0  0  0
 20 25  1  0  0  0  0
 20 21  1  0  0  0  0
 21 23  1  0  0  0  0
 21 22  1  0  0  0  0
 24 21  1  0  0  0  0
 25 26  1  0  0  0  0
 26 32  2  0  0  0  0
 27 28  2  0  0  0  0
 27 26  1  0  0  0  0
 28 29  1  0  0  0  0
 29 30  1  0  0  0  0
 29 31  2  0  0  0  0
 32 31  1  0  0  0  0
M  END
>  <minimizedAffinity>
-8.72483826

$$$$

 OpenBabel12271915233D

 32 35  0  0  1  0  0  0  0  0999 V2000
   23.3800   66.5090   32.2920 C   0  0  0  0  0  0  0  0  0  0  0  0
   22.1170   65.9250   32.1480 C   0  0  0  0  0  0  0  0  0  0  0  0
   21.0070   66.7010   31.7830 C   0  0  0  0  0  0  0  0  0  0  0  0
   21.2590   68.0550   31.5610 C   0  0  0  0  0  0  0  0  0  0  0  0
   22.4800   68.6220   31.6780 N   0  0  0  0  0  0  0  0  0  0  0  0
   23.5270   67.8620   32.0400 C   0  0  0  0  0  0  0  0  0  0  0  0
   19.6830   66.1000   31.6300 C   0  0  0  0  0  0  0  0  0  0  0  0
   19.4250   64.7460   31.8390 C   0  0  0  0  0  0  0  0  0  0  0  0
   18.1410   64.1800   31.6690 C   0  0  0  0  0  0  0  0  0  0  0  0
   17.0940   65.0150   31.2970 C   0  0  0  0  0  0  0  0  0  0  0  0
   15.7780   64.7910   31.0640 N   0  0  0  0  0  0  0  0  0  0  0  0
   15.2590   63.9210   31.1190 H   0  0  0  0  0  0  0  0  0  0  0  0
   15.1560   65.9330   30.7240 N   0  0  0  0  0  0  0  0  0  0  0  0
   16.0730   66.8960   30.7500 C   0  0  0  0  0  0  0  0  0  0  0  0
   15.7650   68.3140   30.4290 C   0  0  0  0  0  0  0  0  0  0  0  0
   17.3100   66.3690   31.0930 C   0  0  0  0  0  0  0  0  0  0  0  0
   18.5920   66.8990   31.2480 C   0  0  0  0  0  0  0  0  0  0  0  0
   24.3630   65.6450   32.6860 O   0  0  0  0  0  0  0  0  0  0  0  0
   24.5910   64.5060   31.8510 C   0  0  0  0  0  0  0  0  0  0  0  0
   24.5520   63.2050   32.6710 C   0  0  1  0  0  0  0  0  0  0  0  0
   25.9060   62.9050   33.2290 N   0  0  0  0  0  0  0  0  0  0  0  0
   26.1480   63.5790   33.9750 H   0  0  0  0  0  0  0  0  0  0  0  0
   25.9340   61.9660   33.6440 H   0  0  0  0  0  0  0  0  0  0  0  0
   26.6350   62.9320   32.4940 H   0  0  0  0  0  0  0  0  0  0  0  0
   23.5680   63.2290   33.8450 C   0  0  0  0  0  0  0  0  0  0  0  0
   22.2940   62.5100   33.5250 C   0  0  0  0  0  0  0  0  0  0  0  0
   21.2490   62.4630   34.4460 C   0  0  0  0  0  0  0  0  0  0  0  0
   20.0570   61.8330   34.1070 C   0  0  0  0  0  0  0  0  0  0  0  0
   19.8960   61.2320   32.8660 C   0  0  0  0  0  0  0  0  0  0  0  0
   18.2710   60.3400   32.4290 Br  0  0  0  0  0  0  0  0  0  0  0  0
   20.9350   61.2730   31.9530 C   0  0  0  0  0  0  0  0  0  0  0  0
   22.1350   61.9090   32.2730 C   0  0  0  0  0  0  0  0  0  0  0  0
  1 18  1  0  0  0  0
  2  1  1  0  0  0  0
  3  2  2  0  0  0  0
  4  5  2  0  0  0  0
  4  3  1  0  0  0  0
  5  6  1  0  0  0  0
  6  1  2  0  0  0  0
  7  3  1  0  0  0  0
  7  8  2  0  0  0  0
  9  8  1  0  0  0  0
 10  9  2  0  0  0  0
 11 12  1  0  0  0  0
 11 10  1  0  0  0  0
 13 14  2  0  0  0  0
 13 11  1  0  0  0  0
 14 16  1  0  0  0  0
 15 14  1  0  0  0  0
 16 17  2  0  0  0  0
 16 10  1  0  0  0  0
 17  7  1  0  0  0  0
 19 18  1  0  0  0  0
 20 19  1  1  0  0  0
 20 21  1  0  0  0  0
 20 25  1  0  0  0  0
 21 23  1  0  0  0  0
 21 22  1  0  0  0  0
 24 21  1  0  0  0  0
 26 25  1  0  0  0  0
 26 27  2  0  0  0  0
 28 27  1  0  0  0  0
 29 28  2  0  0  0  0
 30 29  1  0  0  0  0
 31 32  2  0  0  0  0
 31 29  1  0  0  0  0
 32 26  1  0  0  0  0
M  END
>  <minimizedAffinity>
-8.70772743

$$$$

 OpenBabel12271915233D

 32 35  0  0  1  0  0  0  0  0999 V2000
   20.0020   65.8510   32.0660 C   0  0  0  0  0  0  0  0  0  0  0  0
   19.7820   64.4900   32.3030 C   0  0  0  0  0  0  0  0  0  0  0  0
   18.5820   63.8800   31.9100 C   0  0  0  0  0  0  0  0  0  0  0  0
   17.6630   64.7070   31.2660 C   0  0  0  0  0  0  0  0  0  0  0  0
   17.8760   66.0170   31.0150 N   0  0  0  0  0  0  0  0  0  0  0  0
   19.0280   66.5850   31.4100 C   0  0  0  0  0  0  0  0  0  0  0  0
   18.3440   62.4580   32.1530 C   0  0  0  0  0  0  0  0  0  0  0  0
   19.3660   61.5210   32.2920 C   0  0  0  0  0  0  0  0  0  0  0  0
   19.1160   60.1460   32.5100 C   0  0  0  0  0  0  0  0  0  0  0  0
   17.7960   59.7210   32.6060 C   0  0  0  0  0  0  0  0  0  0  0  0
   17.2330   58.5060   32.8120 N   0  0  0  0  0  0  0  0  0  0  0  0
   17.6870   57.6080   32.9470 H   0  0  0  0  0  0  0  0  0  0  0  0
   15.8930   58.6000   32.8260 N   0  0  0  0  0  0  0  0  0  0  0  0
   15.5920   59.8830   32.6420 C   0  0  0  0  0  0  0  0  0  0  0  0
   14.1960   60.3870   32.5970 C   0  0  0  0  0  0  0  0  0  0  0  0
   16.7530   60.6280   32.4860 C   0  0  0  0  0  0  0  0  0  0  0  0
   17.0280   61.9760   32.2520 C   0  0  0  0  0  0  0  0  0  0  0  0
   21.1970   66.3230   32.5320 O   0  0  0  0  0  0  0  0  0  0  0  0
   22.3710   65.6110   32.1300 C   0  0  0  0  0  0  0  0  0  0  0  0
   23.4760   66.5810   31.6800 C   0  0  1  0  0  0  0  0  0  0  0  0
   22.9910   67.9920   31.7630 N   0  0  0  0  0  0  0  0  0  0  0  0
   22.8910   68.2830   32.7500 H   0  0  0  0  0  0  0  0  0  0  0  0
   23.6560   68.6380   31.3200 H   0  0  0  0  0  0  0  0  0  0  0  0
   22.0850   68.1120   31.2770 H   0  0  0  0  0  0  0  0  0  0  0  0
   24.7670   66.4910   32.5000 C   0  0  0  0  0  0  0  0  0  0  0  0
   25.0230   65.1010   32.9930 C   0  0  0  0  0  0  0  0  0  0  0  0
   25.7050   64.1750   32.2050 C   0  0  0  0  0  0  0  0  0  0  0  0
   25.9760   62.9070   32.7050 C   0  0  0  0  0  0  0  0  0  0  0  0
   25.5610   62.5390   33.9780 C   0  0  0  0  0  0  0  0  0  0  0  0
   25.9070   60.7860   34.6360 Br  0  0  0  0  0  0  0  0  0  0  0  0
   24.8800   63.4550   34.7600 C   0  0  0  0  0  0  0  0  0  0  0  0
   24.6060   64.7350   34.2770 C   0  0  0  0  0  0  0  0  0  0  0  0
  1  2  1  0  0  0  0
  1 18  1  0  0  0  0
  3  7  1  0  0  0  0
  3  2  2  0  0  0  0
  4  3  1  0  0  0  0
  5  4  2  0  0  0  0
  5  6  1  0  0  0  0
  6  1  2  0  0  0  0
  7 17  2  0  0  0  0
  7  8  1  0  0  0  0
  8  9  2  0  0  0  0
  9 10  1  0  0  0  0
 10 11  1  0  0  0  0
 11 13  1  0  0  0  0
 11 12  1  0  0  0  0
 14 13  2  0  0  0  0
 15 14  1  0  0  0  0
 16 10  2  0  0  0  0
 16 14  1  0  0  0  0
 17 16  1  0  0  0  0
 19 18  1  0  0  0  0
 20 21  1  0  0  0  0
 20 19  1  1  0  0  0
 20 25  1  0  0  0  0
 21 22  1  0  0  0  0
 23 21  1  0  0  0  0
 24 21  1  0  0  0  0
 25 26  1  0  0  0  0
 26 32  2  0  0  0  0
 27 28  2  0  0  0  0
 27 26  1  0  0  0  0
 28 29  1  0  0  0  0
 29 30  1  0  0  0  0
 29 31  2  0  0  0  0
 32 31  1  0  0  0  0
M  END
>  <minimizedAffinity>
-8.69378471

$$$$

 OpenBabel12271915233D

 32 35  0  0  1  0  0  0  0  0999 V2000
   23.6810   65.9460   31.9120 C   0  0  0  0  0  0  0  0  0  0  0  0
   22.2830   65.9820   31.9060 C   0  0  0  0  0  0  0  0  0  0  0  0
   21.5980   67.2050   31.8560 C   0  0  0  0  0  0  0  0  0  0  0  0
   22.3980   68.3460   31.7940 C   0  0  0  0  0  0  0  0  0  0  0  0
   23.7480   68.3180   31.7790 N   0  0  0  0  0  0  0  0  0  0  0  0
   24.3840   67.1370   31.8390 C   0  0  0  0  0  0  0  0  0  0  0  0
   20.1370   67.2520   31.8470 C   0  0  0  0  0  0  0  0  0  0  0  0
   19.4050   68.4040   32.1330 C   0  0  0  0  0  0  0  0  0  0  0  0
   17.9910   68.4270   32.1360 C   0  0  0  0  0  0  0  0  0  0  0  0
   17.3100   67.2560   31.8240 C   0  0  0  0  0  0  0  0  0  0  0  0
   15.9920   66.9550   31.7360 N   0  0  0  0  0  0  0  0  0  0  0  0
   15.1880   67.5560   31.8870 H   0  0  0  0  0  0  0  0  0  0  0  0
   15.8220   65.6660   31.3960 N   0  0  0  0  0  0  0  0  0  0  0  0
   17.0350   65.1400   31.2520 C   0  0  0  0  0  0  0  0  0  0  0  0
   17.2610   63.7210   30.8750 C   0  0  0  0  0  0  0  0  0  0  0  0
   18.0050   66.0950   31.5220 C   0  0  0  0  0  0  0  0  0  0  0  0
   19.4010   66.0950   31.5450 C   0  0  0  0  0  0  0  0  0  0  0  0
   24.2170   64.6910   31.9980 O   0  0  0  0  0  0  0  0  0  0  0  0
   24.8710   64.3540   33.2240 C   0  0  0  0  0  0  0  0  0  0  0  0
   24.0890   63.2700   33.9860 C   0  0  1  0  0  0  0  0  0  0  0  0
   24.8800   62.7910   35.1610 N   0  0  0  0  0  0  0  0  0  0  0  0
   24.9250   63.5240   35.8890 H   0  0  0  0  0  0  0  0  0  0  0  0
   24.4450   61.9640   35.5860 H   0  0  0  0  0  0  0  0  0  0  0  0
   25.8410   62.5210   34.8880 H   0  0  0  0  0  0  0  0  0  0  0  0
   22.7240   63.7280   34.5080 C   0  0  0  0  0  0  0  0  0  0  0  0
   21.6030   62.9090   33.9460 C   0  0  0  0  0  0  0  0  0  0  0  0
   21.8390   61.9570   32.9550 C   0  0  0  0  0  0  0  0  0  0  0  0
   20.7910   61.1730   32.4860 C   0  0  0  0  0  0  0  0  0  0  0  0
   19.5030   61.3360   32.9790 C   0  0  0  0  0  0  0  0  0  0  0  0
   18.0710   60.2800   32.3000 Br  0  0  0  0  0  0  0  0  0  0  0  0
   19.2670   62.2840   33.9590 C   0  0  0  0  0  0  0  0  0  0  0  0
   20.3080   63.0740   34.4470 C   0  0  0  0  0  0  0  0  0  0  0  0
  1 18  1  0  0  0  0
  2  1  1  0  0  0  0
  3  2  2  0  0  0  0
  4  3  1  0  0  0  0
  5  4  2  0  0  0  0
  5  6  1  0  0  0  0
  6  1  2  0  0  0  0
  7  3  1  0  0  0  0
  7  8  2  0  0  0  0
  8  9  1  0  0  0  0
 10  9  2  0  0  0  0
 11 10  1  0  0  0  0
 11 12  1  0  0  0  0
 13 11  1  0  0  0  0
 14 13  2  0  0  0  0
 14 16  1  0  0  0  0
 15 14  1  0  0  0  0
 16 17  2  0  0  0  0
 16 10  1  0  0  0  0
 17  7  1  0  0  0  0
 18 19  1  0  0  0  0
 20 19  1  1  0  0  0
 20 25  1  0  0  0  0
 20 21  1  0  0  0  0
 21 23  1  0  0  0  0
 21 22  1  0  0  0  0
 24 21  1  0  0  0  0
 26 32  2  0  0  0  0
 26 25  1  0  0  0  0
 27 26  1  0  0  0  0
 28 27  2  0  0  0  0
 28 29  1  0  0  0  0
 29 31  2  0  0  0  0
 30 29  1  0  0  0  0
 31 32  1  0  0  0  0
M  END
>  <minimizedAffinity>
-8.68840408

$$$$
