
 OpenBabel12271915133D

 32 35  0  0  1  0  0  0  0  0999 V2000
   22.1040   67.2280   31.9460 C   0  0  0  0  0  0  0  0  0  0  0  0
   22.6440   66.0480   32.3440 C   0  0  0  0  0  0  0  0  0  0  0  0
   24.0780   65.9030   32.4120 C   0  0  0  0  0  0  0  0  0  0  0  0
   24.8300   66.9960   32.0320 C   0  0  0  0  0  0  0  0  0  0  0  0
   24.3240   68.1500   31.6140 N   0  0  0  0  0  0  0  0  0  0  0  0
   22.9560   68.2360   31.5810 C   0  0  0  0  0  0  0  0  0  0  0  0
   24.7010   64.6570   32.8350 C   0  0  0  0  0  0  0  0  0  0  0  0
   24.4010   64.0430   34.0650 C   0  0  0  0  0  0  0  0  0  0  0  0
   25.0020   62.8270   34.4580 C   0  0  0  0  0  0  0  0  0  0  0  0
   25.9350   62.2660   33.5670 C   0  0  0  0  0  0  0  0  0  0  0  0
   26.6840   61.1440   33.6210 N   0  0  0  0  0  0  0  0  0  0  0  0
   26.7170   60.4560   34.3540 H   0  0  0  0  0  0  0  0  0  0  0  0
   27.4900   60.9520   32.5280 N   0  0  0  0  0  0  0  0  0  0  0  0
   27.2100   62.0240   31.7700 C   0  0  0  0  0  0  0  0  0  0  0  0
   27.8750   62.2770   30.4460 C   0  0  0  0  0  0  0  0  0  0  0  0
   26.2620   62.8540   32.3650 C   0  0  0  0  0  0  0  0  0  0  0  0
   25.6430   64.0430   31.9960 C   0  0  0  0  0  0  0  0  0  0  0  0
   20.8440   67.6290   31.9110 O   0  0  0  0  0  0  0  0  0  0  0  0
   19.6090   67.2950   31.1420 C   0  0  0  0  0  0  0  0  0  0  0  0
   18.7190   66.2880   31.8630 C   0  0  1  0  0  0  0  0  0  0  0  0
   17.2960   66.8120   31.9070 N   0  0  0  0  0  0  0  0  0  0  0  0
   16.7560   66.4850   31.0970 H   0  0  0  0  0  0  0  0  0  0  0  0
   16.8230   66.4820   32.7440 H   0  0  0  0  0  0  0  0  0  0  0  0
   17.2970   67.8250   31.9260 H   0  0  0  0  0  0  0  0  0  0  0  0
   18.7090   64.8690   31.2670 C   0  0  0  0  0  0  0  0  0  0  0  0
   19.6130   63.9930   32.0950 C   0  0  0  0  0  0  0  0  0  0  0  0
   20.2660   62.9090   31.4830 C   0  0  0  0  0  0  0  0  0  0  0  0
   21.0540   62.0590   32.2500 C   0  0  0  0  0  0  0  0  0  0  0  0
   21.1910   62.2670   33.6110 C   0  0  0  0  0  0  0  0  0  0  0  0
   22.2720   61.1100   34.6310 Br  0  0  0  0  0  0  0  0  0  0  0  0
   20.5270   63.3250   34.2270 C   0  0  0  0  0  0  0  0  0  0  0  0
   19.7450   64.1980   33.4810 C   0  0  0  0  0  0  0  0  0  0  0  0
  1  2  2  0  0  0  0
  2  3  1  0  0  0  0
  3  7  1  0  0  0  0
  4  3  2  0  0  0  0
  5  4  1  0  0  0  0
  6  5  2  0  0  0  0
  6  1  1  0  0  0  0
  7  8  2  0  0  0  0
  8  9  1  0  0  0  0
 10 11  1  0  0  0  0
 10  9  2  0  0  0  0
 11 12  1  0  0  0  0
 13 11  1  0  0  0  0
 14 16  1  0  0  0  0
 14 13  2  0  0  0  0
 15 14  1  0  0  0  0
 16 10  1  0  0  0  0
 17 16  2  0  0  0  0
 17  7  1  0  0  0  0
 18  1  1  0  0  0  0
 19 18  1  0  0  0  0
 20 19  1  6  0  0  0
 20 21  1  0  0  0  0
 21 24  1  0  0  0  0
 21 23  1  0  0  0  0
 22 21  1  0  0  0  0
 25 20  1  0  0  0  0
 25 26  1  0  0  0  0
 26 32  1  0  0  0  0
 27 26  2  0  0  0  0
 27 28  1  0  0  0  0
 28 29  2  0  0  0  0
 29 31  1  0  0  0  0
 29 30  1  0  0  0  0
 32 31  2  0  0  0  0
M  END
>  <minimizedAffinity>
-9.47526741

$$$$

 OpenBabel12271915133D

 32 35  0  0  1  0  0  0  0  0999 V2000
   20.6080   62.9320   33.2490 C   0  0  0  0  0  0  0  0  0  0  0  0
   20.6540   64.2860   33.1580 C   0  0  0  0  0  0  0  0  0  0  0  0
   19.7180   64.9800   32.3070 C   0  0  0  0  0  0  0  0  0  0  0  0
   18.8260   64.1980   31.6010 C   0  0  0  0  0  0  0  0  0  0  0  0
   18.7800   62.8720   31.6540 N   0  0  0  0  0  0  0  0  0  0  0  0
   19.6850   62.2670   32.4880 C   0  0  0  0  0  0  0  0  0  0  0  0
   19.7290   66.4300   32.1800 C   0  0  0  0  0  0  0  0  0  0  0  0
   20.8990   67.1520   31.8790 C   0  0  0  0  0  0  0  0  0  0  0  0
   20.8940   68.5580   31.7450 C   0  0  0  0  0  0  0  0  0  0  0  0
   19.6640   69.2080   31.9480 C   0  0  0  0  0  0  0  0  0  0  0  0
   19.3030   70.5080   31.9050 N   0  0  0  0  0  0  0  0  0  0  0  0
   19.8840   71.3050   31.7070 H   0  0  0  0  0  0  0  0  0  0  0  0
   17.9770   70.7340   32.1720 N   0  0  0  0  0  0  0  0  0  0  0  0
   17.5100   69.4950   32.3910 C   0  0  0  0  0  0  0  0  0  0  0  0
   16.0770   69.2190   32.7490 C   0  0  0  0  0  0  0  0  0  0  0  0
   18.5060   68.5290   32.2610 C   0  0  0  0  0  0  0  0  0  0  0  0
   18.5360   67.1430   32.3710 C   0  0  0  0  0  0  0  0  0  0  0  0
   21.2750   62.1010   34.0310 O   0  0  0  0  0  0  0  0  0  0  0  0
   22.4470   61.1840   33.9090 C   0  0  0  0  0  0  0  0  0  0  0  0
   23.4350   61.3340   35.0620 C   0  0  1  0  0  0  0  0  0  0  0  0
   23.4710   60.0480   35.8670 N   0  0  0  0  0  0  0  0  0  0  0  0
   24.2000   59.4140   35.5200 H   0  0  0  0  0  0  0  0  0  0  0  0
   23.6760   60.2480   36.8420 H   0  0  0  0  0  0  0  0  0  0  0  0
   22.5710   59.5840   35.8240 H   0  0  0  0  0  0  0  0  0  0  0  0
   24.8710   61.7080   34.6560 C   0  0  0  0  0  0  0  0  0  0  0  0
   24.8380   63.0220   33.9210 C   0  0  0  0  0  0  0  0  0  0  0  0
   24.2310   64.1340   34.5300 C   0  0  0  0  0  0  0  0  0  0  0  0
   24.1420   65.3340   33.8370 C   0  0  0  0  0  0  0  0  0  0  0  0
   24.6360   65.4390   32.5490 C   0  0  0  0  0  0  0  0  0  0  0  0
   24.5140   67.0790   31.6290 Br  0  0  0  0  0  0  0  0  0  0  0  0
   25.2160   64.3340   31.9300 C   0  0  0  0  0  0  0  0  0  0  0  0
   25.3320   63.1260   32.6070 C   0  0  0  0  0  0  0  0  0  0  0  0
  1 18  1  0  0  0  0
  2  1  1  0  0  0  0
  3  2  2  0  0  0  0
  4  5  2  0  0  0  0
  4  3  1  0  0  0  0
  5  6  1  0  0  0  0
  6  1  2  0  0  0  0
  7  3  1  0  0  0  0
  7 17  2  0  0  0  0
  8  7  1  0  0  0  0
  9  8  2  0  0  0  0
  9 10  1  0  0  0  0
 10 16  2  0  0  0  0
 11 10  1  0  0  0  0
 11 13  1  0  0  0  0
 12 11  1  0  0  0  0
 13 14  2  0  0  0  0
 14 15  1  0  0  0  0
 16 17  1  0  0  0  0
 16 14  1  0  0  0  0
 19 18  1  0  0  0  0
 20 19  1  6  0  0  0
 20 21  1  0  0  0  0
 21 23  1  0  0  0  0
 22 21  1  0  0  0  0
 24 21  1  0  0  0  0
 25 20  1  0  0  0  0
 26 27  1  0  0  0  0
 26 25  1  0  0  0  0
 28 27  2  0  0  0  0
 29 28  1  0  0  0  0
 30 29  1  0  0  0  0
 31 29  2  0  0  0  0
 31 32  1  0  0  0  0
 32 26  2  0  0  0  0
M  END
>  <minimizedAffinity>
-9.09160709

$$$$

 OpenBabel12271915133D

 32 35  0  0  1  0  0  0  0  0999 V2000
   21.8120   66.8140   31.9830 C   0  0  0  0  0  0  0  0  0  0  0  0
   22.4140   65.6590   32.3650 C   0  0  0  0  0  0  0  0  0  0  0  0
   23.8480   65.6130   32.5180 C   0  0  0  0  0  0  0  0  0  0  0  0
   24.5380   66.7740   32.2350 C   0  0  0  0  0  0  0  0  0  0  0  0
   23.9740   67.9080   31.8340 N   0  0  0  0  0  0  0  0  0  0  0  0
   22.6070   67.8970   31.7170 C   0  0  0  0  0  0  0  0  0  0  0  0
   24.5340   64.3970   32.9270 C   0  0  0  0  0  0  0  0  0  0  0  0
   24.2410   63.7330   34.1330 C   0  0  0  0  0  0  0  0  0  0  0  0
   24.9060   62.5460   34.5120 C   0  0  0  0  0  0  0  0  0  0  0  0
   25.8940   62.0660   33.6330 C   0  0  0  0  0  0  0  0  0  0  0  0
   26.7080   60.9910   33.6790 N   0  0  0  0  0  0  0  0  0  0  0  0
   26.7640   60.2870   34.3950 H   0  0  0  0  0  0  0  0  0  0  0  0
   27.5510   60.8760   32.6030 N   0  0  0  0  0  0  0  0  0  0  0  0
   27.2270   61.9500   31.8660 C   0  0  0  0  0  0  0  0  0  0  0  0
   27.9080   62.2770   30.5670 C   0  0  0  0  0  0  0  0  0  0  0  0
   26.2140   62.7040   32.4550 C   0  0  0  0  0  0  0  0  0  0  0  0
   25.5330   63.8630   32.0990 C   0  0  0  0  0  0  0  0  0  0  0  0
   20.5310   67.1250   31.8850 O   0  0  0  0  0  0  0  0  0  0  0  0
   19.6820   68.0250   31.0490 C   0  0  0  0  0  0  0  0  0  0  0  0
   18.7310   68.8790   31.8830 C   0  0  1  0  0  0  0  0  0  0  0  0
   17.7130   67.9830   32.5630 N   0  0  0  0  0  0  0  0  0  0  0  0
   18.0360   67.6980   33.4950 H   0  0  0  0  0  0  0  0  0  0  0  0
   16.8320   68.4760   32.6810 H   0  0  0  0  0  0  0  0  0  0  0  0
   17.5390   67.1600   31.9980 H   0  0  0  0  0  0  0  0  0  0  0  0
   19.4000   69.7690   32.9440 C   0  0  0  0  0  0  0  0  0  0  0  0
   18.7780   71.1400   32.8860 C   0  0  0  0  0  0  0  0  0  0  0  0
   19.0140   71.9530   31.7650 C   0  0  0  0  0  0  0  0  0  0  0  0
   18.4940   73.2410   31.7280 C   0  0  0  0  0  0  0  0  0  0  0  0
   17.7570   73.7310   32.7910 C   0  0  0  0  0  0  0  0  0  0  0  0
   17.0530   75.4770   32.7180 Br  0  0  0  0  0  0  0  0  0  0  0  0
   17.5410   72.9390   33.9170 C   0  0  0  0  0  0  0  0  0  0  0  0
   18.0370   71.6420   33.9720 C   0  0  0  0  0  0  0  0  0  0  0  0
  1  2  2  0  0  0  0
  2  3  1  0  0  0  0
  3  7  1  0  0  0  0
  4  3  2  0  0  0  0
  5  4  1  0  0  0  0
  6  5  2  0  0  0  0
  6  1  1  0  0  0  0
  7  8  2  0  0  0  0
  8  9  1  0  0  0  0
 10 11  1  0  0  0  0
 10  9  2  0  0  0  0
 11 12  1  0  0  0  0
 13 11  1  0  0  0  0
 14 16  1  0  0  0  0
 14 13  2  0  0  0  0
 15 14  1  0  0  0  0
 16 10  1  0  0  0  0
 17 16  2  0  0  0  0
 17  7  1  0  0  0  0
 18  1  1  0  0  0  0
 19 18  1  0  0  0  0
 20 19  1  1  0  0  0
 20 21  1  0  0  0  0
 20 25  1  0  0  0  0
 21 23  1  0  0  0  0
 21 22  1  0  0  0  0
 24 21  1  0  0  0  0
 26 25  1  0  0  0  0
 26 32  2  0  0  0  0
 27 26  1  0  0  0  0
 28 27  2  0  0  0  0
 28 29  1  0  0  0  0
 29 31  2  0  0  0  0
 30 29  1  0  0  0  0
 31 32  1  0  0  0  0
M  END
>  <minimizedAffinity>
-8.95379829

$$$$

 OpenBabel12271915133D

 32 35  0  0  1  0  0  0  0  0999 V2000
   23.6820   65.8810   31.8840 C   0  0  0  0  0  0  0  0  0  0  0  0
   22.3350   66.0380   31.9500 C   0  0  0  0  0  0  0  0  0  0  0  0
   21.7630   67.3600   31.8760 C   0  0  0  0  0  0  0  0  0  0  0  0
   22.6480   68.4130   31.7660 C   0  0  0  0  0  0  0  0  0  0  0  0
   23.9690   68.2850   31.7260 N   0  0  0  0  0  0  0  0  0  0  0  0
   24.4570   67.0050   31.7880 C   0  0  0  0  0  0  0  0  0  0  0  0
   20.3250   67.5750   31.9420 C   0  0  0  0  0  0  0  0  0  0  0  0
   19.3970   66.6120   31.5050 C   0  0  0  0  0  0  0  0  0  0  0  0
   18.0030   66.8280   31.5860 C   0  0  0  0  0  0  0  0  0  0  0  0
   17.5840   68.0650   32.1070 C   0  0  0  0  0  0  0  0  0  0  0  0
   16.3620   68.5960   32.3190 N   0  0  0  0  0  0  0  0  0  0  0  0
   15.4650   68.1800   32.1330 H   0  0  0  0  0  0  0  0  0  0  0  0
   16.3810   69.8600   32.8520 N   0  0  0  0  0  0  0  0  0  0  0  0
   17.6960   70.1060   32.9650 C   0  0  0  0  0  0  0  0  0  0  0  0
   18.2350   71.4050   33.4950 C   0  0  0  0  0  0  0  0  0  0  0  0
   18.4700   69.0340   32.5260 C   0  0  0  0  0  0  0  0  0  0  0  0
   19.8360   68.7890   32.4490 C   0  0  0  0  0  0  0  0  0  0  0  0
   24.4180   64.7840   31.8200 O   0  0  0  0  0  0  0  0  0  0  0  0
   25.3310   64.0220   32.7220 C   0  0  0  0  0  0  0  0  0  0  0  0
   24.6890   62.7530   33.2750 C   0  0  1  0  0  0  0  0  0  0  0  0
   25.7740   61.8130   33.7680 N   0  0  0  0  0  0  0  0  0  0  0  0
   25.9740   61.9680   34.7630 H   0  0  0  0  0  0  0  0  0  0  0  0
   25.4780   60.8470   33.6610 H   0  0  0  0  0  0  0  0  0  0  0  0
   26.6210   61.9440   33.2280 H   0  0  0  0  0  0  0  0  0  0  0  0
   23.6660   62.9680   34.4040 C   0  0  0  0  0  0  0  0  0  0  0  0
   22.2810   62.9500   33.8090 C   0  0  0  0  0  0  0  0  0  0  0  0
   22.0730   62.3110   32.5750 C   0  0  0  0  0  0  0  0  0  0  0  0
   20.8140   62.3410   31.9890 C   0  0  0  0  0  0  0  0  0  0  0  0
   19.7680   63.0030   32.6070 C   0  0  0  0  0  0  0  0  0  0  0  0
   18.0650   63.0230   31.8010 Br  0  0  0  0  0  0  0  0  0  0  0  0
   19.9740   63.6600   33.8180 C   0  0  0  0  0  0  0  0  0  0  0  0
   21.2200   63.6330   34.4320 C   0  0  0  0  0  0  0  0  0  0  0  0
  1  2  1  0  0  0  0
  3  7  1  0  0  0  0
  3  2  2  0  0  0  0
  4  3  1  0  0  0  0
  5  4  2  0  0  0  0
  5  6  1  0  0  0  0
  6  1  2  0  0  0  0
  7 17  2  0  0  0  0
  8  9  2  0  0  0  0
  8  7  1  0  0  0  0
  9 10  1  0  0  0  0
 10 11  1  0  0  0  0
 10 16  2  0  0  0  0
 11 13  1  0  0  0  0
 12 11  1  0  0  0  0
 13 14  2  0  0  0  0
 14 15  1  0  0  0  0
 16 14  1  0  0  0  0
 17 16  1  0  0  0  0
 18  1  1  0  0  0  0
 18 19  1  0  0  0  0
 20 19  1  1  0  0  0
 20 21  1  0  0  0  0
 20 25  1  0  0  0  0
 21 22  1  0  0  0  0
 23 21  1  0  0  0  0
 24 21  1  0  0  0  0
 26 25  1  0  0  0  0
 26 32  2  0  0  0  0
 27 26  1  0  0  0  0
 28 27  2  0  0  0  0
 28 29  1  0  0  0  0
 29 31  2  0  0  0  0
 30 29  1  0  0  0  0
 31 32  1  0  0  0  0
M  END
>  <minimizedAffinity>
-8.92269707

$$$$

 OpenBabel12271915133D

 32 35  0  0  1  0  0  0  0  0999 V2000
   21.6020   62.4430   33.3450 C   0  0  0  0  0  0  0  0  0  0  0  0
   20.8880   63.5120   32.9090 C   0  0  0  0  0  0  0  0  0  0  0  0
   19.6210   63.3070   32.2500 C   0  0  0  0  0  0  0  0  0  0  0  0
   19.2170   61.9990   32.0770 C   0  0  0  0  0  0  0  0  0  0  0  0
   19.9110   60.9380   32.4720 N   0  0  0  0  0  0  0  0  0  0  0  0
   21.1010   61.1920   33.1040 C   0  0  0  0  0  0  0  0  0  0  0  0
   18.8220   64.4240   31.7670 C   0  0  0  0  0  0  0  0  0  0  0  0
   17.6330   64.2410   31.0360 C   0  0  0  0  0  0  0  0  0  0  0  0
   16.8600   65.3330   30.5840 C   0  0  0  0  0  0  0  0  0  0  0  0
   17.3440   66.6180   30.8840 C   0  0  0  0  0  0  0  0  0  0  0  0
   16.8760   67.8540   30.6120 N   0  0  0  0  0  0  0  0  0  0  0  0
   16.0390   68.1030   30.1120 H   0  0  0  0  0  0  0  0  0  0  0  0
   17.6630   68.8730   31.0850 N   0  0  0  0  0  0  0  0  0  0  0  0
   18.6690   68.2090   31.6770 C   0  0  0  0  0  0  0  0  0  0  0  0
   19.8200   68.9090   32.3430 C   0  0  0  0  0  0  0  0  0  0  0  0
   18.5140   66.8280   31.5830 C   0  0  0  0  0  0  0  0  0  0  0  0
   19.2480   65.7350   32.0290 C   0  0  0  0  0  0  0  0  0  0  0  0
   22.7130   62.3850   34.0600 O   0  0  0  0  0  0  0  0  0  0  0  0
   23.7650   61.3730   34.3710 C   0  0  0  0  0  0  0  0  0  0  0  0
   25.1560   61.9880   34.4980 C   0  0  1  0  0  0  0  0  0  0  0  0
   26.0900   60.9910   35.1580 N   0  0  0  0  0  0  0  0  0  0  0  0
   26.5710   60.4140   34.4570 H   0  0  0  0  0  0  0  0  0  0  0  0
   26.8020   61.4770   35.6960 H   0  0  0  0  0  0  0  0  0  0  0  0
   25.5720   60.3920   35.7900 H   0  0  0  0  0  0  0  0  0  0  0  0
   25.7890   62.4670   33.1800 C   0  0  0  0  0  0  0  0  0  0  0  0
   25.2200   63.8190   32.8360 C   0  0  0  0  0  0  0  0  0  0  0  0
   25.0380   64.7670   33.8570 C   0  0  0  0  0  0  0  0  0  0  0  0
   24.4600   65.9950   33.5610 C   0  0  0  0  0  0  0  0  0  0  0  0
   24.0520   66.2850   32.2710 C   0  0  0  0  0  0  0  0  0  0  0  0
   23.2790   67.9600   31.8880 Br  0  0  0  0  0  0  0  0  0  0  0  0
   24.2070   65.3410   31.2590 C   0  0  0  0  0  0  0  0  0  0  0  0
   24.7960   64.1110   31.5260 C   0  0  0  0  0  0  0  0  0  0  0  0
  1 18  1  0  0  0  0
  2  1  2  0  0  0  0
  3  2  1  0  0  0  0
  4  3  2  0  0  0  0
  4  5  1  0  0  0  0
  5  6  2  0  0  0  0
  6  1  1  0  0  0  0
  7 17  1  0  0  0  0
  7  3  1  0  0  0  0
  8  7  2  0  0  0  0
  9 10  2  0  0  0  0
  9  8  1  0  0  0  0
 10 16  1  0  0  0  0
 11 10  1  0  0  0  0
 11 13  1  0  0  0  0
 12 11  1  0  0  0  0
 13 14  2  0  0  0  0
 14 15  1  0  0  0  0
 16 14  1  0  0  0  0
 16 17  2  0  0  0  0
 18 19  1  0  0  0  0
 19 20  1  0  0  0  0
 20 25  1  6  0  0  0
 20 21  1  0  0  0  0
 21 23  1  0  0  0  0
 21 24  1  0  0  0  0
 22 21  1  0  0  0  0
 26 25  1  0  0  0  0
 26 27  2  0  0  0  0
 28 27  1  0  0  0  0
 29 28  2  0  0  0  0
 30 29  1  0  0  0  0
 31 32  2  0  0  0  0
 31 29  1  0  0  0  0
 32 26  1  0  0  0  0
M  END
>  <minimizedAffinity>
-8.75563622

$$$$

 OpenBabel12271915133D

 32 35  0  0  1  0  0  0  0  0999 V2000
   23.5030   65.8870   31.8520 C   0  0  0  0  0  0  0  0  0  0  0  0
   22.1560   66.0470   31.9100 C   0  0  0  0  0  0  0  0  0  0  0  0
   21.5900   67.3740   31.8720 C   0  0  0  0  0  0  0  0  0  0  0  0
   22.4810   68.4260   31.8040 C   0  0  0  0  0  0  0  0  0  0  0  0
   23.8020   68.2930   31.7730 N   0  0  0  0  0  0  0  0  0  0  0  0
   24.2830   67.0100   31.7990 C   0  0  0  0  0  0  0  0  0  0  0  0
   20.1520   67.5940   31.9300 C   0  0  0  0  0  0  0  0  0  0  0  0
   19.5900   68.7940   32.4040 C   0  0  0  0  0  0  0  0  0  0  0  0
   18.1930   68.9990   32.4420 C   0  0  0  0  0  0  0  0  0  0  0  0
   17.3850   67.9350   32.0010 C   0  0  0  0  0  0  0  0  0  0  0  0
   16.0470   67.7880   31.9070 N   0  0  0  0  0  0  0  0  0  0  0  0
   15.3320   68.4520   32.1490 H   0  0  0  0  0  0  0  0  0  0  0  0
   15.6470   66.5690   31.4210 N   0  0  0  0  0  0  0  0  0  0  0  0
   16.8170   65.9430   31.2120 C   0  0  0  0  0  0  0  0  0  0  0  0
   16.9020   64.5370   30.6890 C   0  0  0  0  0  0  0  0  0  0  0  0
   17.9070   66.7430   31.5490 C   0  0  0  0  0  0  0  0  0  0  0  0
   19.2860   66.5730   31.5070 C   0  0  0  0  0  0  0  0  0  0  0  0
   24.2340   64.7890   31.7600 O   0  0  0  0  0  0  0  0  0  0  0  0
   25.2870   64.1030   32.5660 C   0  0  0  0  0  0  0  0  0  0  0  0
   24.7840   62.8220   33.2260 C   0  0  1  0  0  0  0  0  0  0  0  0
   25.9640   61.9260   33.5530 N   0  0  0  0  0  0  0  0  0  0  0  0
   26.3110   62.1030   34.5030 H   0  0  0  0  0  0  0  0  0  0  0  0
   25.6890   60.9490   33.5030 H   0  0  0  0  0  0  0  0  0  0  0  0
   26.7120   62.0760   32.8860 H   0  0  0  0  0  0  0  0  0  0  0  0
   23.9420   63.0210   34.4980 C   0  0  0  0  0  0  0  0  0  0  0  0
   22.4920   62.7920   34.1570 C   0  0  0  0  0  0  0  0  0  0  0  0
   21.5570   63.8080   34.4170 C   0  0  0  0  0  0  0  0  0  0  0  0
   20.2100   63.5850   34.1620 C   0  0  0  0  0  0  0  0  0  0  0  0
   19.7830   62.3660   33.6650 C   0  0  0  0  0  0  0  0  0  0  0  0
   17.9530   62.0870   33.3160 Br  0  0  0  0  0  0  0  0  0  0  0  0
   20.7010   61.3460   33.4280 C   0  0  0  0  0  0  0  0  0  0  0  0
   22.0560   61.5490   33.6600 C   0  0  0  0  0  0  0  0  0  0  0  0
  1  2  2  0  0  0  0
  3  2  1  0  0  0  0
  3  7  1  0  0  0  0
  4  3  2  0  0  0  0
  5  6  2  0  0  0  0
  5  4  1  0  0  0  0
  6  1  1  0  0  0  0
  7  8  2  0  0  0  0
  8  9  1  0  0  0  0
 10  9  2  0  0  0  0
 11 10  1  0  0  0  0
 11 12  1  0  0  0  0
 13 11  1  0  0  0  0
 14 13  2  0  0  0  0
 14 16  1  0  0  0  0
 15 14  1  0  0  0  0
 16 10  1  0  0  0  0
 17 16  2  0  0  0  0
 17  7  1  0  0  0  0
 18  1  1  0  0  0  0
 18 19  1  0  0  0  0
 20 19  1  1  0  0  0
 20 21  1  0  0  0  0
 20 25  1  0  0  0  0
 21 22  1  0  0  0  0
 23 21  1  0  0  0  0
 24 21  1  0  0  0  0
 26 27  2  0  0  0  0
 26 25  1  0  0  0  0
 28 27  1  0  0  0  0
 29 28  2  0  0  0  0
 30 29  1  0  0  0  0
 31 32  2  0  0  0  0
 31 29  1  0  0  0  0
 32 26  1  0  0  0  0
M  END
>  <minimizedAffinity>
-8.60251141

$$$$

 OpenBabel12271915133D

 32 35  0  0  1  0  0  0  0  0999 V2000
   16.4810   65.5300   30.8790 C   0  0  0  0  0  0  0  0  0  0  0  0
   17.3290   64.4880   31.0770 C   0  0  0  0  0  0  0  0  0  0  0  0
   16.9130   63.3700   31.8880 C   0  0  0  0  0  0  0  0  0  0  0  0
   15.6530   63.4450   32.4480 C   0  0  0  0  0  0  0  0  0  0  0  0
   14.8180   64.4650   32.2890 N   0  0  0  0  0  0  0  0  0  0  0  0
   15.2610   65.4940   31.4990 C   0  0  0  0  0  0  0  0  0  0  0  0
   17.7880   62.2310   32.1260 C   0  0  0  0  0  0  0  0  0  0  0  0
   19.1850   62.3610   32.2300 C   0  0  0  0  0  0  0  0  0  0  0  0
   20.0210   61.2490   32.4740 C   0  0  0  0  0  0  0  0  0  0  0  0
   19.3920   59.9970   32.5890 C   0  0  0  0  0  0  0  0  0  0  0  0
   19.8700   58.7550   32.8120 N   0  0  0  0  0  0  0  0  0  0  0  0
   20.8270   58.4750   32.9460 H   0  0  0  0  0  0  0  0  0  0  0  0
   18.9070   57.7790   32.8500 N   0  0  0  0  0  0  0  0  0  0  0  0
   17.7800   58.4750   32.6350 C   0  0  0  0  0  0  0  0  0  0  0  0
   16.4270   57.8270   32.5670 C   0  0  0  0  0  0  0  0  0  0  0  0
   18.0280   59.8370   32.4740 C   0  0  0  0  0  0  0  0  0  0  0  0
   17.2270   60.9510   32.2490 C   0  0  0  0  0  0  0  0  0  0  0  0
   16.5930   66.5930   30.1010 O   0  0  0  0  0  0  0  0  0  0  0  0
   17.3460   67.8830   30.1090 C   0  0  0  0  0  0  0  0  0  0  0  0
   18.8540   67.6850   30.2280 C   0  0  1  0  0  0  0  0  0  0  0  0
   19.5470   68.3690   29.0650 N   0  0  0  0  0  0  0  0  0  0  0  0
   19.8040   69.3340   29.3030 H   0  0  0  0  0  0  0  0  0  0  0  0
   20.4010   67.8740   28.8220 H   0  0  0  0  0  0  0  0  0  0  0  0
   18.9430   68.3700   28.2510 H   0  0  0  0  0  0  0  0  0  0  0  0
   19.4830   68.1790   31.5430 C   0  0  0  0  0  0  0  0  0  0  0  0
   20.7080   67.3510   31.8320 C   0  0  0  0  0  0  0  0  0  0  0  0
   21.9780   67.9390   31.7100 C   0  0  0  0  0  0  0  0  0  0  0  0
   23.1160   67.1680   31.9160 C   0  0  0  0  0  0  0  0  0  0  0  0
   23.0050   65.8260   32.2310 C   0  0  0  0  0  0  0  0  0  0  0  0
   24.5600   64.8000   32.5180 Br  0  0  0  0  0  0  0  0  0  0  0  0
   21.7500   65.2310   32.3300 C   0  0  0  0  0  0  0  0  0  0  0  0
   20.5970   65.9820   32.1430 C   0  0  0  0  0  0  0  0  0  0  0  0
  1  2  2  0  0  0  0
  1  6  1  0  0  0  0
  2  3  1  0  0  0  0
  3  7  1  0  0  0  0
  3  4  2  0  0  0  0
  5  4  1  0  0  0  0
  6  5  2  0  0  0  0
  7  8  2  0  0  0  0
  7 17  1  0  0  0  0
  8  9  1  0  0  0  0
  9 10  2  0  0  0  0
 10 11  1  0  0  0  0
 11 13  1  0  0  0  0
 11 12  1  0  0  0  0
 14 13  2  0  0  0  0
 15 14  1  0  0  0  0
 16 10  1  0  0  0  0
 16 14  1  0  0  0  0
 17 16  2  0  0  0  0
 18 19  1  0  0  0  0
 18  1  1  0  0  0  0
 20 19  1  1  0  0  0
 20 25  1  0  0  0  0
 21 22  1  0  0  0  0
 21 20  1  0  0  0  0
 23 21  1  0  0  0  0
 24 21  1  0  0  0  0
 25 26  1  0  0  0  0
 26 32  1  0  0  0  0
 27 26  2  0  0  0  0
 27 28  1  0  0  0  0
 28 29  2  0  0  0  0
 29 31  1  0  0  0  0
 29 30  1  0  0  0  0
 32 31  2  0  0  0  0
M  END
>  <minimizedAffinity>
-8.57060719

$$$$

 OpenBabel12271915133D

 32 35  0  0  1  0  0  0  0  0999 V2000
   19.5650   65.7130   31.8670 C   0  0  0  0  0  0  0  0  0  0  0  0
   20.6000   65.0530   32.4490 C   0  0  0  0  0  0  0  0  0  0  0  0
   20.5330   63.6220   32.6180 C   0  0  0  0  0  0  0  0  0  0  0  0
   19.3790   63.0000   32.1880 C   0  0  0  0  0  0  0  0  0  0  0  0
   18.3440   63.6280   31.6400 N   0  0  0  0  0  0  0  0  0  0  0  0
   18.4670   64.9860   31.4930 C   0  0  0  0  0  0  0  0  0  0  0  0
   21.6190   62.8740   33.2350 C   0  0  0  0  0  0  0  0  0  0  0  0
   21.3970   61.9010   34.2270 C   0  0  0  0  0  0  0  0  0  0  0  0
   22.4590   61.1730   34.8080 C   0  0  0  0  0  0  0  0  0  0  0  0
   23.7560   61.4810   34.3620 C   0  0  0  0  0  0  0  0  0  0  0  0
   24.9720   60.9980   34.6940 N   0  0  0  0  0  0  0  0  0  0  0  0
   25.1910   60.2820   35.3650 H   0  0  0  0  0  0  0  0  0  0  0  0
   26.0140   61.5800   34.0180 N   0  0  0  0  0  0  0  0  0  0  0  0
   25.3870   62.4700   33.2320 C   0  0  0  0  0  0  0  0  0  0  0  0
   26.1250   63.3850   32.2950 C   0  0  0  0  0  0  0  0  0  0  0  0
   24.0050   62.4420   33.4050 C   0  0  0  0  0  0  0  0  0  0  0  0
   22.9400   63.1320   32.8380 C   0  0  0  0  0  0  0  0  0  0  0  0
   19.4460   66.9800   31.5100 O   0  0  0  0  0  0  0  0  0  0  0  0
   18.3640   67.8820   31.0150 C   0  0  0  0  0  0  0  0  0  0  0  0
   17.9290   68.9090   32.0570 C   0  0  1  0  0  0  0  0  0  0  0  0
   17.0140   68.2460   33.0680 N   0  0  0  0  0  0  0  0  0  0  0  0
   17.5470   67.8810   33.8660 H   0  0  0  0  0  0  0  0  0  0  0  0
   16.3410   68.9170   33.4290 H   0  0  0  0  0  0  0  0  0  0  0  0
   16.5000   67.4900   32.6310 H   0  0  0  0  0  0  0  0  0  0  0  0
   19.0730   69.6140   32.8060 C   0  0  0  0  0  0  0  0  0  0  0  0
   18.7440   71.0800   32.9210 C   0  0  0  0  0  0  0  0  0  0  0  0
   17.9190   71.5180   33.9710 C   0  0  0  0  0  0  0  0  0  0  0  0
   17.5610   72.8580   34.0510 C   0  0  0  0  0  0  0  0  0  0  0  0
   18.0010   73.7590   33.0990 C   0  0  0  0  0  0  0  0  0  0  0  0
   17.5120   75.5740   33.2310 Br  0  0  0  0  0  0  0  0  0  0  0  0
   18.7980   73.3270   32.0410 C   0  0  0  0  0  0  0  0  0  0  0  0
   19.1830   71.9960   31.9460 C   0  0  0  0  0  0  0  0  0  0  0  0
  1  2  2  0  0  0  0
  2  3  1  0  0  0  0
  3  7  1  0  0  0  0
  4  3  2  0  0  0  0
  5  4  1  0  0  0  0
  6  5  2  0  0  0  0
  6  1  1  0  0  0  0
  7  8  1  0  0  0  0
  8  9  2  0  0  0  0
 10 11  1  0  0  0  0
 10  9  1  0  0  0  0
 11 12  1  0  0  0  0
 13 11  1  0  0  0  0
 14 16  1  0  0  0  0
 14 13  2  0  0  0  0
 15 14  1  0  0  0  0
 16 10  2  0  0  0  0
 17  7  2  0  0  0  0
 17 16  1  0  0  0  0
 18  1  1  0  0  0  0
 19 18  1  0  0  0  0
 20 19  1  6  0  0  0
 20 25  1  0  0  0  0
 20 21  1  0  0  0  0
 21 23  1  0  0  0  0
 21 22  1  0  0  0  0
 24 21  1  0  0  0  0
 25 26  1  0  0  0  0
 26 27  2  0  0  0  0
 27 28  1  0  0  0  0
 29 30  1  0  0  0  0
 29 28  2  0  0  0  0
 31 29  1  0  0  0  0
 32 31  2  0  0  0  0
 32 26  1  0  0  0  0
M  END
>  <minimizedAffinity>
-8.50325966

$$$$

 OpenBabel12271915133D

 32 35  0  0  1  0  0  0  0  0999 V2000
   19.8790   64.0880   31.9540 C   0  0  0  0  0  0  0  0  0  0  0  0
   19.2320   62.9170   32.1880 C   0  0  0  0  0  0  0  0  0  0  0  0
   17.8120   62.8230   31.9520 C   0  0  0  0  0  0  0  0  0  0  0  0
   17.1790   63.9690   31.5150 C   0  0  0  0  0  0  0  0  0  0  0  0
   17.7870   65.1310   31.3050 N   0  0  0  0  0  0  0  0  0  0  0  0
   19.1380   65.1590   31.5340 C   0  0  0  0  0  0  0  0  0  0  0  0
   17.0780   61.5880   32.1870 C   0  0  0  0  0  0  0  0  0  0  0  0
   15.6720   61.5380   32.2110 C   0  0  0  0  0  0  0  0  0  0  0  0
   14.9720   60.3310   32.4280 C   0  0  0  0  0  0  0  0  0  0  0  0
   15.7490   59.1780   32.6380 C   0  0  0  0  0  0  0  0  0  0  0  0
   15.4220   57.8900   32.8740 N   0  0  0  0  0  0  0  0  0  0  0  0
   14.5030   57.4880   32.9470 H   0  0  0  0  0  0  0  0  0  0  0  0
   16.4990   57.0540   33.0310 N   0  0  0  0  0  0  0  0  0  0  0  0
   17.5380   57.8910   32.8840 C   0  0  0  0  0  0  0  0  0  0  0  0
   18.9660   57.4370   32.9930 C   0  0  0  0  0  0  0  0  0  0  0  0
   17.1280   59.1990   32.6380 C   0  0  0  0  0  0  0  0  0  0  0  0
   17.7910   60.3990   32.4070 C   0  0  0  0  0  0  0  0  0  0  0  0
   21.1680   64.3790   31.9900 O   0  0  0  0  0  0  0  0  0  0  0  0
   22.0700   65.2610   32.7880 C   0  0  0  0  0  0  0  0  0  0  0  0
   23.0150   66.0830   31.9150 C   0  0  1  0  0  0  0  0  0  0  0  0
   22.4200   67.4600   31.6870 N   0  0  0  0  0  0  0  0  0  0  0  0
   22.7410   68.1240   32.4010 H   0  0  0  0  0  0  0  0  0  0  0  0
   22.7060   67.8220   30.7820 H   0  0  0  0  0  0  0  0  0  0  0  0
   21.4090   67.4110   31.7010 H   0  0  0  0  0  0  0  0  0  0  0  0
   24.4460   66.2410   32.4580 C   0  0  0  0  0  0  0  0  0  0  0  0
   24.9070   64.9110   32.9950 C   0  0  0  0  0  0  0  0  0  0  0  0
   25.5720   64.0180   32.1380 C   0  0  0  0  0  0  0  0  0  0  0  0
   25.9480   62.7650   32.6070 C   0  0  0  0  0  0  0  0  0  0  0  0
   25.6640   62.3890   33.9070 C   0  0  0  0  0  0  0  0  0  0  0  0
   26.1920   60.6910   34.5280 Br  0  0  0  0  0  0  0  0  0  0  0  0
   24.9840   63.2600   34.7550 C   0  0  0  0  0  0  0  0  0  0  0  0
   24.6090   64.5240   34.3150 C   0  0  0  0  0  0  0  0  0  0  0  0
  1 18  1  0  0  0  0
  1  2  1  0  0  0  0
  3  7  1  0  0  0  0
  3  2  2  0  0  0  0
  4  3  1  0  0  0  0
  5  4  2  0  0  0  0
  5  6  1  0  0  0  0
  6  1  2  0  0  0  0
  7  8  2  0  0  0  0
  7 17  1  0  0  0  0
  8  9  1  0  0  0  0
  9 10  2  0  0  0  0
 10 11  1  0  0  0  0
 11 12  1  0  0  0  0
 11 13  1  0  0  0  0
 14 15  1  0  0  0  0
 14 13  2  0  0  0  0
 16 10  1  0  0  0  0
 16 14  1  0  0  0  0
 17 16  2  0  0  0  0
 18 19  1  0  0  0  0
 20 25  1  1  0  0  0
 20 19  1  0  0  0  0
 21 24  1  0  0  0  0
 21 20  1  0  0  0  0
 21 22  1  0  0  0  0
 23 21  1  0  0  0  0
 25 26  1  0  0  0  0
 26 32  2  0  0  0  0
 27 28  2  0  0  0  0
 27 26  1  0  0  0  0
 28 29  1  0  0  0  0
 29 30  1  0  0  0  0
 29 31  2  0  0  0  0
 32 31  1  0  0  0  0
M  END
>  <minimizedAffinity>
-8.33780384

$$$$
