
 OpenBabel12271915153D

 27 29  0  0  1  0  0  0  0  0999 V2000
   20.1200   62.6740   32.4260 C   0  0  1  0  0  0  0  0  0  0  0  0
   19.8840   61.2560   32.1100 N   0  0  0  0  0  0  0  0  0  0  0  0
   19.9390   60.6790   32.9820 H   0  0  0  0  0  0  0  0  0  0  0  0
   18.2850   61.2120   31.9400 O   0  0  0  0  0  0  0  0  0  0  0  0
   17.8430   62.5120   32.3910 C   0  0  2  0  0  0  0  0  0  0  0  0
   16.6150   62.2130   33.2180 C   0  0  1  0  0  0  0  0  0  0  0  0
   15.3740   62.7960   32.5930 C   0  0  2  0  0  0  0  0  0  0  0  0
   15.6290   64.1940   32.2080 C   0  0  1  0  0  0  0  0  0  0  0  0
   16.6260   64.1900   31.0740 C   0  0  2  0  0  0  0  0  0  0  0  0
   17.7030   63.2310   31.1410 O   0  0  0  0  0  0  0  0  0  0  0  0
   18.9290   63.1440   33.1610 C   0  0  0  0  0  0  0  0  0  0  0  0
   21.3950   62.6700   33.2050 C   0  0  0  0  0  0  0  0  0  0  0  0
   21.8110   61.4840   33.8390 C   0  0  0  0  0  0  0  0  0  0  0  0
   22.9620   61.4560   34.5780 C   0  0  0  0  0  0  0  0  0  0  0  0
   23.7590   62.5820   34.7010 C   0  0  0  0  0  0  0  0  0  0  0  0
   25.0010   62.4620   35.5210 C   0  0  0  0  0  0  0  0  0  0  0  0
   23.3540   63.7700   34.0940 C   0  0  0  0  0  0  0  0  0  0  0  0
   22.1800   63.8080   33.3460 C   0  0  0  0  0  0  0  0  0  0  0  0
   14.3440   62.7750   33.6230 O   0  0  0  0  0  0  0  0  0  0  0  0
   13.5440   63.1020   33.1750 H   0  0  0  0  0  0  0  0  0  0  0  0
   16.4510   60.7880   33.4200 O   0  0  0  0  0  0  0  0  0  0  0  0
   16.3110   60.4000   32.5350 H   0  0  0  0  0  0  0  0  0  0  0  0
   14.4180   64.7540   31.6890 O   0  0  0  0  0  0  0  0  0  0  0  0
   14.5390   64.8990   30.7300 H   0  0  0  0  0  0  0  0  0  0  0  0
   17.2030   65.5410   30.8790 C   0  0  0  0  0  0  0  0  0  0  0  0
   16.8620   66.3130   32.0400 O   0  0  0  0  0  0  0  0  0  0  0  0
   16.5760   67.2020   31.7620 H   0  0  0  0  0  0  0  0  0  0  0  0
  1 11  1  0  0  0  0
  1 12  1  1  0  0  0
  2  1  1  0  0  0  0
  2  3  1  0  0  0  0
  4  2  1  0  0  0  0
  4  5  1  0  0  0  0
  5 11  1  1  0  0  0
  6  5  1  6  0  0  0
  6 21  1  0  0  0  0
  7  6  1  0  0  0  0
  7 19  1  1  0  0  0
  8 23  1  6  0  0  0
  8  7  1  0  0  0  0
  9 25  1  1  0  0  0
  9 10  1  0  0  0  0
  9  8  1  0  0  0  0
 10  5  1  0  0  0  0
 12 18  2  0  0  0  0
 12 13  1  0  0  0  0
 13 14  2  0  0  0  0
 14 15  1  0  0  0  0
 15 16  1  0  0  0  0
 17 15  2  0  0  0  0
 18 17  1  0  0  0  0
 20 19  1  0  0  0  0
 22 21  1  0  0  0  0
 24 23  1  0  0  0  0
 25 26  1  0  0  0  0
 27 26  1  0  0  0  0
M  END
>  <minimizedAffinity>
-7.98466969

$$$$

 OpenBabel12271915153D

 27 29  0  0  1  0  0  0  0  0999 V2000
   22.9740   63.9040   32.7290 C   0  0  1  0  0  0  0  0  0  0  0  0
   22.9850   64.3450   34.1340 N   0  0  0  0  0  0  0  0  0  0  0  0
   22.2480   63.8380   34.6760 H   0  0  0  0  0  0  0  0  0  0  0  0
   24.2520   63.5490   34.7250 O   0  0  0  0  0  0  0  0  0  0  0  0
   24.6230   62.6340   33.6700 C   0  0  2  0  0  0  0  0  0  0  0  0
   24.9230   61.3430   34.3950 C   0  0  1  0  0  0  0  0  0  0  0  0
   26.3750   60.9620   34.2640 C   0  0  2  0  0  0  0  0  0  0  0  0
   26.7880   61.0810   32.8560 C   0  0  1  0  0  0  0  0  0  0  0  0
   26.7740   62.5450   32.4880 C   0  0  2  0  0  0  0  0  0  0  0  0
   25.6980   63.3510   33.0160 O   0  0  0  0  0  0  0  0  0  0  0  0
   23.5030   62.5260   32.7190 C   0  0  0  0  0  0  0  0  0  0  0  0
   21.5480   64.0490   32.3090 C   0  0  0  0  0  0  0  0  0  0  0  0
   20.8920   62.9570   31.7120 C   0  0  0  0  0  0  0  0  0  0  0  0
   19.5930   63.0670   31.2960 C   0  0  0  0  0  0  0  0  0  0  0  0
   18.8840   64.2430   31.4750 C   0  0  0  0  0  0  0  0  0  0  0  0
   17.4690   64.2750   30.9970 C   0  0  0  0  0  0  0  0  0  0  0  0
   19.5230   65.3410   32.0490 C   0  0  0  0  0  0  0  0  0  0  0  0
   20.8470   65.2380   32.4680 C   0  0  0  0  0  0  0  0  0  0  0  0
   26.4730   59.5650   34.6650 O   0  0  0  0  0  0  0  0  0  0  0  0
   27.4240   59.3660   34.6250 H   0  0  0  0  0  0  0  0  0  0  0  0
   24.5510   61.4270   35.7930 O   0  0  0  0  0  0  0  0  0  0  0  0
   25.1150   62.1230   36.1850 H   0  0  0  0  0  0  0  0  0  0  0  0
   28.1450   60.6400   32.7390 O   0  0  0  0  0  0  0  0  0  0  0  0
   28.6990   61.4200   32.5390 H   0  0  0  0  0  0  0  0  0  0  0  0
   26.8190   62.7160   31.0160 C   0  0  0  0  0  0  0  0  0  0  0  0
   28.1970   62.6220   30.6260 O   0  0  0  0  0  0  0  0  0  0  0  0
   28.3930   63.3170   29.9720 H   0  0  0  0  0  0  0  0  0  0  0  0
  1 12  1  1  0  0  0
  1  2  1  0  0  0  0
  2  3  1  0  0  0  0
  2  4  1  0  0  0  0
  5 11  1  6  0  0  0
  5  4  1  0  0  0  0
  6  5  1  1  0  0  0
  6 21  1  0  0  0  0
  7  6  1  0  0  0  0
  7 19  1  6  0  0  0
  8 23  1  1  0  0  0
  8  7  1  0  0  0  0
  9 25  1  6  0  0  0
  9  8  1  0  0  0  0
  9 10  1  0  0  0  0
 10  5  1  0  0  0  0
 11  1  1  0  0  0  0
 12 18  1  0  0  0  0
 13 12  2  0  0  0  0
 14 15  2  0  0  0  0
 14 13  1  0  0  0  0
 15 17  1  0  0  0  0
 16 15  1  0  0  0  0
 17 18  2  0  0  0  0
 20 19  1  0  0  0  0
 21 22  1  0  0  0  0
 24 23  1  0  0  0  0
 26 25  1  0  0  0  0
 27 26  1  0  0  0  0
M  END
>  <minimizedAffinity>
-7.93198156

$$$$

 OpenBabel12271915153D

 27 29  0  0  1  0  0  0  0  0999 V2000
   21.4360   62.8760   33.2960 C   0  0  1  0  0  0  0  0  0  0  0  0
   21.1710   64.0860   34.0920 N   0  0  0  0  0  0  0  0  0  0  0  0
   21.5340   64.9310   33.5940 H   0  0  0  0  0  0  0  0  0  0  0  0
   19.6080   64.3400   33.8060 O   0  0  0  0  0  0  0  0  0  0  0  0
   19.2830   63.4070   32.7510 C   0  0  2  0  0  0  0  0  0  0  0  0
   18.4090   64.2070   31.8140 C   0  0  1  0  0  0  0  0  0  0  0  0
   17.0080   63.6550   31.7610 C   0  0  2  0  0  0  0  0  0  0  0  0
   17.0610   62.1950   31.5850 C   0  0  1  0  0  0  0  0  0  0  0  0
   17.6290   61.5940   32.8490 C   0  0  2  0  0  0  0  0  0  0  0  0
   18.7090   62.3040   33.4940 O   0  0  0  0  0  0  0  0  0  0  0  0
   20.5330   62.9360   32.1300 C   0  0  0  0  0  0  0  0  0  0  0  0
   22.8950   62.9540   32.9840 C   0  0  0  0  0  0  0  0  0  0  0  0
   23.3560   63.9360   32.0870 C   0  0  0  0  0  0  0  0  0  0  0  0
   24.6830   64.0170   31.7640 C   0  0  0  0  0  0  0  0  0  0  0  0
   25.6090   63.1550   32.3290 C   0  0  0  0  0  0  0  0  0  0  0  0
   27.0380   63.3160   31.9260 C   0  0  0  0  0  0  0  0  0  0  0  0
   25.1680   62.1650   33.2070 C   0  0  0  0  0  0  0  0  0  0  0  0
   23.8180   62.0730   33.5340 C   0  0  0  0  0  0  0  0  0  0  0  0
   16.3760   64.2460   30.5890 O   0  0  0  0  0  0  0  0  0  0  0  0
   15.4600   63.9170   30.6140 H   0  0  0  0  0  0  0  0  0  0  0  0
   18.3840   65.6070   32.1850 O   0  0  0  0  0  0  0  0  0  0  0  0
   17.9770   65.6470   33.0730 H   0  0  0  0  0  0  0  0  0  0  0  0
   15.7240   61.7000   31.4600 O   0  0  0  0  0  0  0  0  0  0  0  0
   15.5160   61.1830   32.2620 H   0  0  0  0  0  0  0  0  0  0  0  0
   18.0510   60.1920   32.6190 C   0  0  0  0  0  0  0  0  0  0  0  0
   18.6010   60.1330   31.2940 O   0  0  0  0  0  0  0  0  0  0  0  0
   18.2750   59.3310   30.8470 H   0  0  0  0  0  0  0  0  0  0  0  0
  1 12  1  6  0  0  0
  1  2  1  0  0  0  0
  3  2  1  0  0  0  0
  4  2  1  0  0  0  0
  5 11  1  6  0  0  0
  5 10  1  0  0  0  0
  5  4  1  0  0  0  0
  6 21  1  0  0  0  0
  6  5  1  1  0  0  0
  7 19  1  6  0  0  0
  7  6  1  0  0  0  0
  8 23  1  1  0  0  0
  8  7  1  0  0  0  0
  8  9  1  0  0  0  0
  9 25  1  6  0  0  0
  9 10  1  0  0  0  0
 11  1  1  0  0  0  0
 12 18  2  0  0  0  0
 13 12  1  0  0  0  0
 14 13  2  0  0  0  0
 14 15  1  0  0  0  0
 15 17  2  0  0  0  0
 16 15  1  0  0  0  0
 17 18  1  0  0  0  0
 19 20  1  0  0  0  0
 21 22  1  0  0  0  0
 23 24  1  0  0  0  0
 26 25  1  0  0  0  0
 27 26  1  0  0  0  0
M  END
>  <minimizedAffinity>
-7.85115719

$$$$

 OpenBabel12271915153D

 27 29  0  0  1  0  0  0  0  0999 V2000
   20.8240   64.1380   32.1620 C   0  0  1  0  0  0  0  0  0  0  0  0
   20.7500   63.0700   31.1500 N   0  0  0  0  0  0  0  0  0  0  0  0
   20.7010   62.1350   31.6180 H   0  0  0  0  0  0  0  0  0  0  0  0
   19.2090   63.1470   30.6940 O   0  0  0  0  0  0  0  0  0  0  0  0
   18.6020   64.0580   31.6380 C   0  0  2  0  0  0  0  0  0  0  0  0
   17.2790   63.4100   31.9720 C   0  0  1  0  0  0  0  0  0  0  0  0
   16.1200   64.2500   31.5020 C   0  0  2  0  0  0  0  0  0  0  0  0
   16.3310   65.6490   31.9100 C   0  0  1  0  0  0  0  0  0  0  0  0
   17.5010   66.1920   31.1240 C   0  0  2  0  0  0  0  0  0  0  0  0
   18.6200   65.3060   30.9040 O   0  0  0  0  0  0  0  0  0  0  0  0
   19.4950   64.2010   32.8010 C   0  0  0  0  0  0  0  0  0  0  0  0
   21.9470   63.7220   33.0530 C   0  0  0  0  0  0  0  0  0  0  0  0
   21.9420   62.4300   33.6110 C   0  0  0  0  0  0  0  0  0  0  0  0
   22.9460   62.0290   34.4490 C   0  0  0  0  0  0  0  0  0  0  0  0
   24.0040   62.8710   34.7510 C   0  0  0  0  0  0  0  0  0  0  0  0
   25.0600   62.3510   35.6700 C   0  0  0  0  0  0  0  0  0  0  0  0
   24.0170   64.1600   34.2220 C   0  0  0  0  0  0  0  0  0  0  0  0
   22.9950   64.5780   33.3730 C   0  0  0  0  0  0  0  0  0  0  0  0
   14.9370   63.7380   32.1810 O   0  0  0  0  0  0  0  0  0  0  0  0
   14.2010   64.2610   31.8170 H   0  0  0  0  0  0  0  0  0  0  0  0
   17.1910   62.0770   31.4120 O   0  0  0  0  0  0  0  0  0  0  0  0
   17.2290   62.1840   30.4410 H   0  0  0  0  0  0  0  0  0  0  0  0
   15.1850   66.4160   31.5240 O   0  0  0  0  0  0  0  0  0  0  0  0
   15.4530   67.0170   30.8020 H   0  0  0  0  0  0  0  0  0  0  0  0
   18.0000   67.4490   31.7290 C   0  0  0  0  0  0  0  0  0  0  0  0
   17.1710   67.7240   32.8680 O   0  0  0  0  0  0  0  0  0  0  0  0
   16.9490   68.6720   32.8820 H   0  0  0  0  0  0  0  0  0  0  0  0
  1 11  1  0  0  0  0
  1 12  1  1  0  0  0
  2  3  1  0  0  0  0
  2  1  1  0  0  0  0
  4  2  1  0  0  0  0
  4  5  1  0  0  0  0
  5 11  1  1  0  0  0
  6  5  1  6  0  0  0
  7  8  1  0  0  0  0
  7  6  1  0  0  0  0
  7 19  1  1  0  0  0
  8 23  1  6  0  0  0
  9 25  1  1  0  0  0
  9  8  1  0  0  0  0
 10  9  1  0  0  0  0
 10  5  1  0  0  0  0
 12 18  2  0  0  0  0
 12 13  1  0  0  0  0
 13 14  2  0  0  0  0
 14 15  1  0  0  0  0
 15 16  1  0  0  0  0
 17 15  2  0  0  0  0
 18 17  1  0  0  0  0
 20 19  1  0  0  0  0
 21  6  1  0  0  0  0
 22 21  1  0  0  0  0
 24 23  1  0  0  0  0
 25 26  1  0  0  0  0
 26 27  1  0  0  0  0
M  END
>  <minimizedAffinity>
-7.37716866

$$$$

 OpenBabel12271915153D

 27 29  0  0  1  0  0  0  0  0999 V2000
   20.1480   68.2210   31.3950 C   0  0  1  0  0  0  0  0  0  0  0  0
   19.2220   67.2290   30.8250 N   0  0  0  0  0  0  0  0  0  0  0  0
   19.1330   66.4090   31.4680 H   0  0  0  0  0  0  0  0  0  0  0  0
   17.7890   67.8890   31.1420 O   0  0  0  0  0  0  0  0  0  0  0  0
   18.0930   69.0020   32.0120 C   0  0  2  0  0  0  0  0  0  0  0  0
   17.0180   68.9420   33.0710 C   0  0  1  0  0  0  0  0  0  0  0  0
   16.1210   70.1510   33.0160 C   0  0  2  0  0  0  0  0  0  0  0  0
   16.9440   71.3690   32.9290 C   0  0  1  0  0  0  0  0  0  0  0  0
   17.6270   71.3750   31.5820 C   0  0  2  0  0  0  0  0  0  0  0  0
   18.1160   70.1120   31.0810 O   0  0  0  0  0  0  0  0  0  0  0  0
   19.4550   68.8290   32.5470 C   0  0  0  0  0  0  0  0  0  0  0  0
   21.3730   67.4330   31.7250 C   0  0  0  0  0  0  0  0  0  0  0  0
   22.6320   68.0600   31.6680 C   0  0  0  0  0  0  0  0  0  0  0  0
   23.7740   67.3580   31.9430 C   0  0  0  0  0  0  0  0  0  0  0  0
   23.7200   66.0230   32.3070 C   0  0  0  0  0  0  0  0  0  0  0  0
   25.0130   65.3330   32.5950 C   0  0  0  0  0  0  0  0  0  0  0  0
   22.4840   65.3810   32.3520 C   0  0  0  0  0  0  0  0  0  0  0  0
   21.3180   66.0880   32.0670 C   0  0  0  0  0  0  0  0  0  0  0  0
   15.3810   70.1740   34.2700 O   0  0  0  0  0  0  0  0  0  0  0  0
   14.7730   70.9290   34.1810 H   0  0  0  0  0  0  0  0  0  0  0  0
   16.2330   67.7300   32.9550 O   0  0  0  0  0  0  0  0  0  0  0  0
   15.7870   67.7740   32.0860 H   0  0  0  0  0  0  0  0  0  0  0  0
   16.0780   72.5090   32.9560 O   0  0  0  0  0  0  0  0  0  0  0  0
   16.1000   72.9260   32.0730 H   0  0  0  0  0  0  0  0  0  0  0  0
   18.7360   72.3570   31.5620 C   0  0  0  0  0  0  0  0  0  0  0  0
   19.1000   72.6050   32.9280 O   0  0  0  0  0  0  0  0  0  0  0  0
   19.2390   73.5610   33.0550 H   0  0  0  0  0  0  0  0  0  0  0  0
  1 12  1  1  0  0  0
  1 11  1  0  0  0  0
  2  4  1  0  0  0  0
  2  1  1  0  0  0  0
  2  3  1  0  0  0  0
  4  5  1  0  0  0  0
  5 11  1  1  0  0  0
  6  5  1  6  0  0  0
  7  6  1  0  0  0  0
  7 19  1  1  0  0  0
  8 23  1  6  0  0  0
  8  7  1  0  0  0  0
  9 25  1  1  0  0  0
  9  8  1  0  0  0  0
 10  9  1  0  0  0  0
 10  5  1  0  0  0  0
 12 18  1  0  0  0  0
 13 12  2  0  0  0  0
 13 14  1  0  0  0  0
 14 15  2  0  0  0  0
 15 17  1  0  0  0  0
 15 16  1  0  0  0  0
 18 17  2  0  0  0  0
 20 19  1  0  0  0  0
 21  6  1  0  0  0  0
 22 21  1  0  0  0  0
 24 23  1  0  0  0  0
 25 26  1  0  0  0  0
 26 27  1  0  0  0  0
M  END
>  <minimizedAffinity>
-7.36700773

$$$$

 OpenBabel12271915153D

 27 29  0  0  1  0  0  0  0  0999 V2000
   19.8080   62.3650   32.2440 C   0  0  1  0  0  0  0  0  0  0  0  0
   20.3050   61.3740   31.2740 N   0  0  0  0  0  0  0  0  0  0  0  0
   20.9980   60.7390   31.7330 H   0  0  0  0  0  0  0  0  0  0  0  0
   19.0840   60.3280   31.2090 O   0  0  0  0  0  0  0  0  0  0  0  0
   18.2050   60.7400   32.2800 C   0  0  2  0  0  0  0  0  0  0  0  0
   17.7800   59.4400   32.9220 C   0  0  1  0  0  0  0  0  0  0  0  0
   16.3010   59.2010   32.7560 C   0  0  2  0  0  0  0  0  0  0  0  0
   15.5630   60.4250   33.1090 C   0  0  1  0  0  0  0  0  0  0  0  0
   15.8700   61.4720   32.0650 C   0  0  2  0  0  0  0  0  0  0  0  0
   17.2260   61.5380   31.5710 O   0  0  0  0  0  0  0  0  0  0  0  0
   18.9460   61.6290   33.1900 C   0  0  0  0  0  0  0  0  0  0  0  0
   21.0470   62.9580   32.8310 C   0  0  0  0  0  0  0  0  0  0  0  0
   21.5070   64.2010   32.3560 C   0  0  0  0  0  0  0  0  0  0  0  0
   22.6510   64.7580   32.8580 C   0  0  0  0  0  0  0  0  0  0  0  0
   23.3710   64.1300   33.8610 C   0  0  0  0  0  0  0  0  0  0  0  0
   24.6040   64.8110   34.3560 C   0  0  0  0  0  0  0  0  0  0  0  0
   22.9390   62.8910   34.3320 C   0  0  0  0  0  0  0  0  0  0  0  0
   21.7790   62.3140   33.8210 C   0  0  0  0  0  0  0  0  0  0  0  0
   15.9450   58.1510   33.7010 O   0  0  0  0  0  0  0  0  0  0  0  0
   15.0020   57.9800   33.5310 H   0  0  0  0  0  0  0  0  0  0  0  0
   18.5310   58.3210   32.3920 O   0  0  0  0  0  0  0  0  0  0  0  0
   18.3070   58.2660   31.4420 H   0  0  0  0  0  0  0  0  0  0  0  0
   14.1600   60.1550   33.0210 O   0  0  0  0  0  0  0  0  0  0  0  0
   13.8040   60.6530   32.2590 H   0  0  0  0  0  0  0  0  0  0  0  0
   15.4680   62.8170   32.5380 C   0  0  0  0  0  0  0  0  0  0  0  0
   14.0810   62.9810   32.2060 O   0  0  0  0  0  0  0  0  0  0  0  0
   13.9410   63.8750   31.8460 H   0  0  0  0  0  0  0  0  0  0  0  0
  1 12  1  1  0  0  0
  1 11  1  0  0  0  0
  2  3  1  0  0  0  0
  2  1  1  0  0  0  0
  4  2  1  0  0  0  0
  4  5  1  0  0  0  0
  5 11  1  1  0  0  0
  6  5  1  6  0  0  0
  7  6  1  0  0  0  0
  7  8  1  0  0  0  0
  7 19  1  1  0  0  0
  8 23  1  6  0  0  0
  9 25  1  1  0  0  0
  9  8  1  0  0  0  0
 10  9  1  0  0  0  0
 10  5  1  0  0  0  0
 12 18  1  0  0  0  0
 13 12  2  0  0  0  0
 13 14  1  0  0  0  0
 14 15  2  0  0  0  0
 15 17  1  0  0  0  0
 15 16  1  0  0  0  0
 18 17  2  0  0  0  0
 20 19  1  0  0  0  0
 21  6  1  0  0  0  0
 22 21  1  0  0  0  0
 24 23  1  0  0  0  0
 26 25  1  0  0  0  0
 27 26  1  0  0  0  0
M  END
>  <minimizedAffinity>
-7.34273243

$$$$

 OpenBabel12271915153D

 27 29  0  0  1  0  0  0  0  0999 V2000
   20.6330   63.5400   33.0350 C   0  0  1  0  0  0  0  0  0  0  0  0
   20.6490   63.4160   34.5030 N   0  0  0  0  0  0  0  0  0  0  0  0
   20.3720   62.4470   34.7850 H   0  0  0  0  0  0  0  0  0  0  0  0
   22.2220   63.2730   34.8090 O   0  0  0  0  0  0  0  0  0  0  0  0
   22.8260   63.1140   33.5060 C   0  0  2  0  0  0  0  0  0  0  0  0
   23.8550   62.0270   33.7120 C   0  0  1  0  0  0  0  0  0  0  0  0
   25.2550   62.5480   33.5110 C   0  0  2  0  0  0  0  0  0  0  0  0
   25.3120   63.3330   32.2670 C   0  0  1  0  0  0  0  0  0  0  0  0
   24.4960   64.5870   32.4690 C   0  0  2  0  0  0  0  0  0  0  0  0
   23.2640   64.4630   33.2120 O   0  0  0  0  0  0  0  0  0  0  0  0
   21.7780   62.7530   32.5360 C   0  0  0  0  0  0  0  0  0  0  0  0
   19.2840   63.0350   32.6390 C   0  0  0  0  0  0  0  0  0  0  0  0
   18.8460   61.7880   33.1220 C   0  0  0  0  0  0  0  0  0  0  0  0
   17.6260   61.2890   32.7580 C   0  0  0  0  0  0  0  0  0  0  0  0
   16.7800   62.0060   31.9280 C   0  0  0  0  0  0  0  0  0  0  0  0
   15.4640   61.3900   31.5850 C   0  0  0  0  0  0  0  0  0  0  0  0
   17.2050   63.2350   31.4260 C   0  0  0  0  0  0  0  0  0  0  0  0
   18.4490   63.7460   31.7870 C   0  0  0  0  0  0  0  0  0  0  0  0
   26.1130   61.3790   33.3670 O   0  0  0  0  0  0  0  0  0  0  0  0
   27.0130   61.7450   33.2970 H   0  0  0  0  0  0  0  0  0  0  0  0
   23.7280   61.4240   35.0240 O   0  0  0  0  0  0  0  0  0  0  0  0
   23.9160   62.1330   35.6700 H   0  0  0  0  0  0  0  0  0  0  0  0
   26.6640   63.7530   32.0530 O   0  0  0  0  0  0  0  0  0  0  0  0
   26.7040   64.7200   32.1810 H   0  0  0  0  0  0  0  0  0  0  0  0
   24.2050   65.2380   31.1700 C   0  0  0  0  0  0  0  0  0  0  0  0
   24.1490   66.6520   31.4140 O   0  0  0  0  0  0  0  0  0  0  0  0
   23.3900   67.0300   30.9350 H   0  0  0  0  0  0  0  0  0  0  0  0
  1 12  1  6  0  0  0
  1  2  1  0  0  0  0
  2  3  1  0  0  0  0
  2  4  1  0  0  0  0
  5 11  1  6  0  0  0
  5  4  1  0  0  0  0
  6  5  1  1  0  0  0
  6 21  1  0  0  0  0
  7 19  1  6  0  0  0
  7  6  1  0  0  0  0
  8 23  1  1  0  0  0
  8  9  1  0  0  0  0
  8  7  1  0  0  0  0
  9 25  1  6  0  0  0
  9 10  1  0  0  0  0
 10  5  1  0  0  0  0
 11  1  1  0  0  0  0
 12 13  2  0  0  0  0
 14 13  1  0  0  0  0
 15 14  2  0  0  0  0
 16 15  1  0  0  0  0
 17 18  2  0  0  0  0
 17 15  1  0  0  0  0
 18 12  1  0  0  0  0
 20 19  1  0  0  0  0
 21 22  1  0  0  0  0
 23 24  1  0  0  0  0
 25 26  1  0  0  0  0
 27 26  1  0  0  0  0
M  END
>  <minimizedAffinity>
-7.2515254

$$$$

 OpenBabel12271915153D

 27 29  0  0  1  0  0  0  0  0999 V2000
   19.9210   68.0330   31.5260 C   0  0  1  0  0  0  0  0  0  0  0  0
   19.8350   68.1460   30.0600 N   0  0  0  0  0  0  0  0  0  0  0  0
   20.0410   67.2210   29.6150 H   0  0  0  0  0  0  0  0  0  0  0  0
   18.2440   68.1360   29.8160 O   0  0  0  0  0  0  0  0  0  0  0  0
   17.6880   67.8030   31.1080 C   0  0  2  0  0  0  0  0  0  0  0  0
   16.5880   66.8180   30.7880 C   0  0  1  0  0  0  0  0  0  0  0  0
   15.2320   67.3730   31.1400 C   0  0  2  0  0  0  0  0  0  0  0  0
   15.2750   67.9510   32.4930 C   0  0  1  0  0  0  0  0  0  0  0  0
   16.1560   69.1770   32.4480 C   0  0  2  0  0  0  0  0  0  0  0  0
   17.3460   69.1090   31.6320 O   0  0  0  0  0  0  0  0  0  0  0  0
   18.7530   67.2380   31.9540 C   0  0  0  0  0  0  0  0  0  0  0  0
   21.2530   67.4010   31.7680 C   0  0  0  0  0  0  0  0  0  0  0  0
   21.3160   66.0350   32.1050 C   0  0  0  0  0  0  0  0  0  0  0  0
   22.5190   65.4350   32.3550 C   0  0  0  0  0  0  0  0  0  0  0  0
   23.7050   66.1440   32.2580 C   0  0  0  0  0  0  0  0  0  0  0  0
   24.9740   65.4090   32.5420 C   0  0  0  0  0  0  0  0  0  0  0  0
   23.6610   67.5010   31.9420 C   0  0  0  0  0  0  0  0  0  0  0  0
   22.4390   68.1210   31.6930 C   0  0  0  0  0  0  0  0  0  0  0  0
   14.3120   66.2440   31.1430 O   0  0  0  0  0  0  0  0  0  0  0  0
   13.4400   66.6400   31.3160 H   0  0  0  0  0  0  0  0  0  0  0  0
   16.6220   66.4270   29.3930 O   0  0  0  0  0  0  0  0  0  0  0  0
   16.4500   67.2390   28.8760 H   0  0  0  0  0  0  0  0  0  0  0  0
   13.9610   68.4020   32.8400 O   0  0  0  0  0  0  0  0  0  0  0  0
   13.9740   69.3780   32.8680 H   0  0  0  0  0  0  0  0  0  0  0  0
   16.5400   69.5960   33.8170 C   0  0  0  0  0  0  0  0  0  0  0  0
   15.4960   70.4540   34.3000 O   0  0  0  0  0  0  0  0  0  0  0  0
   15.8940   71.2210   34.7500 H   0  0  0  0  0  0  0  0  0  0  0  0
  1 12  1  6  0  0  0
  1 11  1  0  0  0  0
  2  1  1  0  0  0  0
  3  2  1  0  0  0  0
  4  2  1  0  0  0  0
  4  5  1  0  0  0  0
  5 10  1  0  0  0  0
  5 11  1  1  0  0  0
  6  5  1  6  0  0  0
  6  7  1  0  0  0  0
  7 19  1  1  0  0  0
  7  8  1  0  0  0  0
  8 23  1  6  0  0  0
  9  8  1  0  0  0  0
  9 25  1  1  0  0  0
 10  9  1  0  0  0  0
 12 13  1  0  0  0  0
 13 14  2  0  0  0  0
 15 14  1  0  0  0  0
 15 16  1  0  0  0  0
 17 15  2  0  0  0  0
 18 12  2  0  0  0  0
 18 17  1  0  0  0  0
 19 20  1  0  0  0  0
 21  6  1  0  0  0  0
 22 21  1  0  0  0  0
 23 24  1  0  0  0  0
 25 26  1  0  0  0  0
 26 27  1  0  0  0  0
M  END
>  <minimizedAffinity>
-7.12326956

$$$$

 OpenBabel12271915153D

 27 29  0  0  1  0  0  0  0  0999 V2000
   20.2710   60.6470   32.4690 C   0  0  1  0  0  0  0  0  0  0  0  0
   20.3270   61.2100   31.1090 N   0  0  0  0  0  0  0  0  0  0  0  0
   19.5210   61.8600   30.9550 H   0  0  0  0  0  0  0  0  0  0  0  0
   21.4660   62.3360   31.2600 O   0  0  0  0  0  0  0  0  0  0  0  0
   21.7190   62.4000   32.6810 C   0  0  2  0  0  0  0  0  0  0  0  0
   21.8320   63.8790   32.9660 C   0  0  1  0  0  0  0  0  0  0  0  0
   23.2190   64.2480   33.4240 C   0  0  2  0  0  0  0  0  0  0  0  0
   23.6600   63.3040   34.4640 C   0  0  1  0  0  0  0  0  0  0  0  0
   23.8500   61.9530   33.8180 C   0  0  2  0  0  0  0  0  0  0  0  0
   22.8890   61.5560   32.8150 O   0  0  0  0  0  0  0  0  0  0  0  0
   20.6050   61.7490   33.3920 C   0  0  0  0  0  0  0  0  0  0  0  0
   18.8820   60.1080   32.5860 C   0  0  0  0  0  0  0  0  0  0  0  0
   18.6940   58.7280   32.7920 C   0  0  0  0  0  0  0  0  0  0  0  0
   17.4340   58.2030   32.8810 C   0  0  0  0  0  0  0  0  0  0  0  0
   16.3150   59.0140   32.7970 C   0  0  0  0  0  0  0  0  0  0  0  0
   14.9770   58.3590   32.9100 C   0  0  0  0  0  0  0  0  0  0  0  0
   16.4820   60.3800   32.5760 C   0  0  0  0  0  0  0  0  0  0  0  0
   17.7610   60.9220   32.4780 C   0  0  0  0  0  0  0  0  0  0  0  0
   23.1200   65.5780   34.0090 O   0  0  0  0  0  0  0  0  0  0  0  0
   24.0360   65.8110   34.2420 H   0  0  0  0  0  0  0  0  0  0  0  0
   21.4600   64.6670   31.8080 O   0  0  0  0  0  0  0  0  0  0  0  0
   22.1100   64.4510   31.1100 H   0  0  0  0  0  0  0  0  0  0  0  0
   24.9450   63.7170   34.9420 O   0  0  0  0  0  0  0  0  0  0  0  0
   25.6030   63.0580   34.6450 H   0  0  0  0  0  0  0  0  0  0  0  0
   23.9340   60.8880   34.8450 C   0  0  0  0  0  0  0  0  0  0  0  0
   25.3190   60.5320   34.9670 O   0  0  0  0  0  0  0  0  0  0  0  0
   25.3970   59.5620   35.0160 H   0  0  0  0  0  0  0  0  0  0  0  0
  1 12  1  1  0  0  0
  1 11  1  0  0  0  0
  2  4  1  0  0  0  0
  2  1  1  0  0  0  0
  3  2  1  0  0  0  0
  4  5  1  0  0  0  0
  5 10  1  0  0  0  0
  5 11  1  1  0  0  0
  6  5  1  6  0  0  0
  6  7  1  0  0  0  0
  7 19  1  1  0  0  0
  7  8  1  0  0  0  0
  8 23  1  6  0  0  0
  9  8  1  0  0  0  0
  9 25  1  1  0  0  0
 10  9  1  0  0  0  0
 12 13  2  0  0  0  0
 13 14  1  0  0  0  0
 15 14  2  0  0  0  0
 15 16  1  0  0  0  0
 17 15  1  0  0  0  0
 18 17  2  0  0  0  0
 18 12  1  0  0  0  0
 19 20  1  0  0  0  0
 21  6  1  0  0  0  0
 22 21  1  0  0  0  0
 24 23  1  0  0  0  0
 25 26  1  0  0  0  0
 26 27  1  0  0  0  0
M  END
>  <minimizedAffinity>
-7.01989555

$$$$
