
 OpenBabel12271915183D

 37 41  0  0  1  0  0  0  0  0999 V2000
   16.9880   61.8020   32.6720 C   0  0  2  0  0  0  0  0  0  0  0  0
   18.0100   60.9980   32.0310 O   0  0  0  0  0  0  0  0  0  0  0  0
   19.2510   60.7480   32.4820 C   0  0  0  0  0  0  0  0  0  0  0  0
   19.9460   59.8710   31.9550 O   0  0  0  0  0  0  0  0  0  0  0  0
   19.7620   61.5380   33.6090 C   0  0  0  0  0  0  0  0  0  0  0  0
   18.9530   62.4130   34.2550 C   0  0  0  0  0  0  0  0  0  0  0  0
   19.3010   63.1150   35.2770 O   0  0  0  0  0  0  0  0  0  0  0  0
   17.5430   62.6840   33.8030 C   0  0  0  0  0  0  0  0  0  0  0  0
   15.9440   60.7950   33.1660 C   0  0  0  0  0  0  0  0  0  0  0  0
   14.4990   61.1160   32.7140 C   0  0  0  0  0  0  0  0  0  0  0  0
   13.7970   59.7790   32.4530 C   0  0  0  0  0  0  0  0  0  0  0  0
   14.7870   58.6880   32.8270 C   0  0  0  0  0  0  0  0  0  0  0  0
   16.1500   59.3490   32.6650 C   0  0  0  0  0  0  0  0  0  0  0  0
   21.1890   61.3130   34.0230 C   0  0  0  0  0  0  0  0  0  0  0  0
   22.1020   62.4040   33.5300 C   0  0  0  0  0  0  0  0  0  0  0  0
   21.7030   63.6610   33.2330 N   0  0  0  0  0  0  0  0  0  0  0  0
   22.7790   64.2970   32.8470 C   0  0  0  0  0  0  0  0  0  0  0  0
   22.9540   65.5940   32.4220 N   0  0  0  0  0  0  0  0  0  0  0  0
   24.1440   65.9610   32.0950 C   0  0  0  0  0  0  0  0  0  0  0  0
   24.3900   67.3710   31.6470 C   0  0  0  0  0  0  0  0  0  0  0  0
   25.3250   65.0630   32.1280 C   0  0  0  0  0  0  0  0  0  0  0  0
   25.1230   63.8110   32.5570 C   0  0  0  0  0  0  0  0  0  0  0  0
   26.2440   62.8260   32.6580 C   0  0  0  0  0  0  0  0  0  0  0  0
   23.8410   63.4240   32.9310 N   0  0  0  0  0  0  0  0  0  0  0  0
   23.4240   62.2530   33.4320 N   0  0  0  0  0  0  0  0  0  0  0  0
   16.5270   62.6590   31.4890 C   0  0  0  0  0  0  0  0  0  0  0  0
   17.4640   63.6400   30.7850 C   0  0  0  0  0  0  0  0  0  0  0  0
   17.9190   67.3040   31.6130 C   0  0  0  0  0  0  0  0  0  0  0  0
   16.7410   67.8400   31.2190 N   0  0  0  0  0  0  0  0  0  0  0  0
   15.7880   67.0130   30.7400 C   0  0  0  0  0  0  0  0  0  0  0  0
   15.9950   65.6550   30.6080 C   0  0  0  0  0  0  0  0  0  0  0  0
   17.2070   65.1020   30.9920 C   0  0  0  0  0  0  0  0  0  0  0  0
   18.1800   65.9460   31.5130 C   0  0  0  0  0  0  0  0  0  0  0  0
   20.3450   67.8040   31.6130 C   0  0  0  0  0  0  0  0  0  0  0  0
   18.9780   68.2720   32.0970 C   0  0  0  0  0  0  0  0  0  0  0  0
   14.4840   67.6140   30.2700 C   0  0  0  0  0  0  0  0  0  0  0  0
   13.9040   66.7310   29.1680 C   0  0  0  0  0  0  0  0  0  0  0  0
  1 26  1  6  0  0  0
  1  9  1  0  0  0  0
  1  8  1  0  0  0  0
  2  3  1  0  0  0  0
  2  1  1  0  0  0  0
  3  5  1  0  0  0  0
  4  3  2  0  0  0  0
  5 14  1  0  0  0  0
  5  6  2  0  0  0  0
  6  7  1  0  0  0  0
  8  6  1  0  0  0  0
 10  9  1  0  0  0  0
 11 10  1  0  0  0  0
 11 12  1  0  0  0  0
 13 12  1  0  0  0  0
 13  9  1  0  0  0  0
 15 14  1  0  0  0  0
 16 15  2  0  0  0  0
 17 24  1  0  0  0  0
 17 16  2  0  0  0  0
 18 17  2  0  0  0  0
 19 21  1  0  0  0  0
 19 18  2  0  0  0  0
 20 19  1  0  0  0  0
 21 22  2  0  0  0  0
 22 23  1  0  0  0  0
 22 24  1  0  0  0  0
 24 25  1  0  0  0  0
 25 15  2  0  0  0  0
 27 32  1  0  0  0  0
 27 26  1  0  0  0  0
 28 35  1  0  0  0  0
 29 28  2  0  0  0  0
 30 29  2  0  0  0  0
 31 30  1  0  0  0  0
 31 32  2  0  0  0  0
 32 33  1  0  0  0  0
 33 28  1  0  0  0  0
 34 35  1  0  0  0  0
 36 30  1  0  0  0  0
 37 36  1  0  0  0  0
M  END
>  <minimizedAffinity>
-9.25221157

$$$$

 OpenBabel12271915183D

 37 41  0  0  1  0  0  0  0  0999 V2000
   21.1100   64.4290   32.6300 C   0  0  2  0  0  0  0  0  0  0  0  0
   20.6420   63.7360   33.8140 O   0  0  0  0  0  0  0  0  0  0  0  0
   20.4840   62.4110   33.9710 C   0  0  0  0  0  0  0  0  0  0  0  0
   20.2930   61.9300   35.0960 O   0  0  0  0  0  0  0  0  0  0  0  0
   20.5420   61.5490   32.7840 C   0  0  0  0  0  0  0  0  0  0  0  0
   20.8700   62.0690   31.5760 C   0  0  0  0  0  0  0  0  0  0  0  0
   20.9850   61.3860   30.4910 O   0  0  0  0  0  0  0  0  0  0  0  0
   21.0970   63.5440   31.3730 C   0  0  0  0  0  0  0  0  0  0  0  0
   22.5140   64.9240   32.9900 C   0  0  0  0  0  0  0  0  0  0  0  0
   23.2300   64.0620   34.0570 C   0  0  0  0  0  0  0  0  0  0  0  0
   24.7200   64.0360   33.6980 C   0  0  0  0  0  0  0  0  0  0  0  0
   24.8900   64.9370   32.4870 C   0  0  0  0  0  0  0  0  0  0  0  0
   23.5210   64.9280   31.8180 C   0  0  0  0  0  0  0  0  0  0  0  0
   20.2550   60.0860   32.9730 C   0  0  0  0  0  0  0  0  0  0  0  0
   18.7880   59.7740   32.8450 C   0  0  0  0  0  0  0  0  0  0  0  0
   18.2690   58.5270   32.8310 N   0  0  0  0  0  0  0  0  0  0  0  0
   16.9750   58.6780   32.7090 C   0  0  0  0  0  0  0  0  0  0  0  0
   15.9630   57.7490   32.6320 N   0  0  0  0  0  0  0  0  0  0  0  0
   14.7580   58.1850   32.5100 C   0  0  0  0  0  0  0  0  0  0  0  0
   13.6180   57.2130   32.4450 C   0  0  0  0  0  0  0  0  0  0  0  0
   14.4040   59.6240   32.4260 C   0  0  0  0  0  0  0  0  0  0  0  0
   15.4090   60.5030   32.5160 C   0  0  0  0  0  0  0  0  0  0  0  0
   15.1690   61.9780   32.4710 C   0  0  0  0  0  0  0  0  0  0  0  0
   16.7070   60.0290   32.6700 N   0  0  0  0  0  0  0  0  0  0  0  0
   17.8460   60.7180   32.8300 N   0  0  0  0  0  0  0  0  0  0  0  0
   20.0580   65.5390   32.5260 C   0  0  0  0  0  0  0  0  0  0  0  0
   20.3760   66.9030   31.9160 C   0  0  0  0  0  0  0  0  0  0  0  0
   18.5460   70.1600   32.5150 C   0  0  0  0  0  0  0  0  0  0  0  0
   17.3380   69.9230   31.9540 N   0  0  0  0  0  0  0  0  0  0  0  0
   17.1010   68.7000   31.4330 C   0  0  0  0  0  0  0  0  0  0  0  0
   18.0600   67.7090   31.4260 C   0  0  0  0  0  0  0  0  0  0  0  0
   19.3070   67.9510   31.9830 C   0  0  0  0  0  0  0  0  0  0  0  0
   19.5440   69.1990   32.5460 C   0  0  0  0  0  0  0  0  0  0  0  0
   19.1810   72.4700   31.8850 C   0  0  0  0  0  0  0  0  0  0  0  0
   18.7880   71.5580   33.0410 C   0  0  0  0  0  0  0  0  0  0  0  0
   15.7650   68.4450   30.7780 C   0  0  0  0  0  0  0  0  0  0  0  0
   15.8170   67.0980   30.0600 C   0  0  0  0  0  0  0  0  0  0  0  0
  1 26  1  6  0  0  0
  1  9  1  0  0  0  0
  1  2  1  0  0  0  0
  2  3  1  0  0  0  0
  3  4  2  0  0  0  0
  5 14  1  0  0  0  0
  5  3  1  0  0  0  0
  6  5  2  0  0  0  0
  7  6  1  0  0  0  0
  8  6  1  0  0  0  0
  8  1  1  0  0  0  0
  9 10  1  0  0  0  0
 11 10  1  0  0  0  0
 12 11  1  0  0  0  0
 13 12  1  0  0  0  0
 13  9  1  0  0  0  0
 15 14  1  0  0  0  0
 16 15  2  0  0  0  0
 17 16  2  0  0  0  0
 18 17  2  0  0  0  0
 19 18  2  0  0  0  0
 20 19  1  0  0  0  0
 21 19  1  0  0  0  0
 21 22  2  0  0  0  0
 22 24  1  0  0  0  0
 23 22  1  0  0  0  0
 24 17  1  0  0  0  0
 24 25  1  0  0  0  0
 25 15  2  0  0  0  0
 27 32  1  0  0  0  0
 27 26  2  0  0  0  0
 28 33  1  0  0  0  0
 28 35  1  0  0  0  0
 29 28  2  0  0  0  0
 30 29  2  0  0  0  0
 31 30  1  0  0  0  0
 31 32  2  0  0  0  0
 32 33  1  0  0  0  0
 34 35  1  0  0  0  0
 36 30  1  0  0  0  0
 37 36  1  0  0  0  0
M  END
>  <minimizedAffinity>
-9.23168373

$$$$

 OpenBabel12271915183D

 37 41  0  0  1  0  0  0  0  0999 V2000
   21.5840   64.2280   32.7840 C   0  0  2  0  0  0  0  0  0  0  0  0
   20.9320   63.6050   33.9200 O   0  0  0  0  0  0  0  0  0  0  0  0
   20.5720   62.3160   34.0440 C   0  0  0  0  0  0  0  0  0  0  0  0
   20.2280   61.8640   35.1440 O   0  0  0  0  0  0  0  0  0  0  0  0
   20.5940   61.4610   32.8520 C   0  0  0  0  0  0  0  0  0  0  0  0
   21.0840   61.9330   31.6790 C   0  0  0  0  0  0  0  0  0  0  0  0
   21.1810   61.2440   30.5950 O   0  0  0  0  0  0  0  0  0  0  0  0
   21.5370   63.3590   31.5160 C   0  0  0  0  0  0  0  0  0  0  0  0
   23.0140   64.5110   33.2550 C   0  0  0  0  0  0  0  0  0  0  0  0
   24.0020   63.3490   32.9960 C   0  0  0  0  0  0  0  0  0  0  0  0
   25.3580   63.9730   32.6460 C   0  0  0  0  0  0  0  0  0  0  0  0
   25.1900   65.4770   32.7800 C   0  0  0  0  0  0  0  0  0  0  0  0
   23.7000   65.7090   32.5620 C   0  0  0  0  0  0  0  0  0  0  0  0
   20.0840   60.0540   32.9960 C   0  0  0  0  0  0  0  0  0  0  0  0
   18.5880   59.9750   32.8520 C   0  0  0  0  0  0  0  0  0  0  0  0
   17.8780   58.8250   32.8520 N   0  0  0  0  0  0  0  0  0  0  0  0
   16.6260   59.1760   32.7090 C   0  0  0  0  0  0  0  0  0  0  0  0
   15.4810   58.4170   32.6330 N   0  0  0  0  0  0  0  0  0  0  0  0
   14.3610   59.0350   32.4870 C   0  0  0  0  0  0  0  0  0  0  0  0
   13.0830   58.2540   32.4230 C   0  0  0  0  0  0  0  0  0  0  0  0
   14.2400   60.5100   32.3740 C   0  0  0  0  0  0  0  0  0  0  0  0
   15.3710   61.2210   32.4630 C   0  0  0  0  0  0  0  0  0  0  0  0
   15.3670   62.7140   32.3900 C   0  0  0  0  0  0  0  0  0  0  0  0
   16.5760   60.5510   32.6430 N   0  0  0  0  0  0  0  0  0  0  0  0
   17.8070   61.0560   32.8080 N   0  0  0  0  0  0  0  0  0  0  0  0
   20.7150   65.4790   32.6200 C   0  0  0  0  0  0  0  0  0  0  0  0
   19.3860   65.4490   31.8650 C   0  0  0  0  0  0  0  0  0  0  0  0
   16.7950   68.0490   30.9420 C   0  0  0  0  0  0  0  0  0  0  0  0
   17.2870   69.1680   31.5210 N   0  0  0  0  0  0  0  0  0  0  0  0
   18.4740   69.0930   32.1600 C   0  0  0  0  0  0  0  0  0  0  0  0
   19.1740   67.9080   32.2670 C   0  0  0  0  0  0  0  0  0  0  0  0
   18.6670   66.7520   31.6920 C   0  0  0  0  0  0  0  0  0  0  0  0
   17.4590   66.8330   31.0090 C   0  0  0  0  0  0  0  0  0  0  0  0
   15.0320   66.8060   29.7260 C   0  0  0  0  0  0  0  0  0  0  0  0
   15.4390   68.1650   30.2810 C   0  0  0  0  0  0  0  0  0  0  0  0
   19.0080   70.3340   32.8340 C   0  0  0  0  0  0  0  0  0  0  0  0
   18.7530   71.5360   31.9270 C   0  0  0  0  0  0  0  0  0  0  0  0
  1 26  1  6  0  0  0
  1  9  1  0  0  0  0
  1  2  1  0  0  0  0
  2  3  1  0  0  0  0
  3  4  2  0  0  0  0
  5 14  1  0  0  0  0
  5  3  1  0  0  0  0
  6  5  2  0  0  0  0
  7  6  1  0  0  0  0
  8  6  1  0  0  0  0
  8  1  1  0  0  0  0
 10  9  1  0  0  0  0
 11 12  1  0  0  0  0
 11 10  1  0  0  0  0
 13 12  1  0  0  0  0
 13  9  1  0  0  0  0
 15 14  1  0  0  0  0
 16 15  2  0  0  0  0
 17 16  2  0  0  0  0
 18 17  2  0  0  0  0
 19 18  2  0  0  0  0
 20 19  1  0  0  0  0
 21 22  2  0  0  0  0
 21 19  1  0  0  0  0
 22 24  1  0  0  0  0
 23 22  1  0  0  0  0
 24 17  1  0  0  0  0
 24 25  1  0  0  0  0
 25 15  2  0  0  0  0
 27 26  2  0  0  0  0
 28 33  1  0  0  0  0
 28 29  2  0  0  0  0
 29 30  2  0  0  0  0
 30 31  1  0  0  0  0
 30 36  1  0  0  0  0
 32 27  1  0  0  0  0
 32 31  2  0  0  0  0
 33 32  1  0  0  0  0
 34 35  1  0  0  0  0
 35 28  1  0  0  0  0
 37 36  1  0  0  0  0
M  END
>  <minimizedAffinity>
-9.16039753

$$$$

 OpenBabel12271915183D

 37 41  0  0  1  0  0  0  0  0999 V2000
   17.4890   62.1100   32.6150 C   0  0  2  0  0  0  0  0  0  0  0  0
   16.3740   62.6020   33.4000 O   0  0  0  0  0  0  0  0  0  0  0  0
   15.5220   63.5880   33.0730 C   0  0  0  0  0  0  0  0  0  0  0  0
   14.4840   63.7620   33.7240 O   0  0  0  0  0  0  0  0  0  0  0  0
   15.8500   64.4530   31.9330 C   0  0  0  0  0  0  0  0  0  0  0  0
   16.9260   64.1810   31.1550 C   0  0  0  0  0  0  0  0  0  0  0  0
   17.2660   64.8570   30.1130 O   0  0  0  0  0  0  0  0  0  0  0  0
   17.8770   63.0570   31.4670 C   0  0  0  0  0  0  0  0  0  0  0  0
   17.0460   60.7300   32.1190 C   0  0  0  0  0  0  0  0  0  0  0  0
   18.1420   59.6420   32.2260 C   0  0  0  0  0  0  0  0  0  0  0  0
   17.4440   58.3250   32.5820 C   0  0  0  0  0  0  0  0  0  0  0  0
   15.9520   58.6160   32.6020 C   0  0  0  0  0  0  0  0  0  0  0  0
   15.8660   60.1080   32.8990 C   0  0  0  0  0  0  0  0  0  0  0  0
   14.9360   65.6130   31.6560 C   0  0  0  0  0  0  0  0  0  0  0  0
   15.4080   66.8780   32.3210 C   0  0  0  0  0  0  0  0  0  0  0  0
   16.4930   67.5870   31.9360 N   0  0  0  0  0  0  0  0  0  0  0  0
   16.5630   68.6060   32.7530 C   0  0  0  0  0  0  0  0  0  0  0  0
   17.4690   69.6390   32.8280 N   0  0  0  0  0  0  0  0  0  0  0  0
   17.2960   70.5220   33.7500 C   0  0  0  0  0  0  0  0  0  0  0  0
   18.2430   71.6790   33.8590 C   0  0  0  0  0  0  0  0  0  0  0  0
   16.1930   70.4750   34.7430 C   0  0  0  0  0  0  0  0  0  0  0  0
   15.3220   69.4650   34.6350 C   0  0  0  0  0  0  0  0  0  0  0  0
   14.1570   69.3320   35.5630 C   0  0  0  0  0  0  0  0  0  0  0  0
   15.4990   68.5260   33.6250 N   0  0  0  0  0  0  0  0  0  0  0  0
   14.7310   67.4760   33.3030 N   0  0  0  0  0  0  0  0  0  0  0  0
   18.5850   62.0730   33.6850 C   0  0  0  0  0  0  0  0  0  0  0  0
   19.3620   63.3240   34.0930 C   0  0  0  0  0  0  0  0  0  0  0  0
   22.9040   64.2600   33.1450 C   0  0  0  0  0  0  0  0  0  0  0  0
   23.6310   63.2850   33.7380 N   0  0  0  0  0  0  0  0  0  0  0  0
   22.9760   62.3040   34.3930 C   0  0  0  0  0  0  0  0  0  0  0  0
   21.6010   62.2890   34.5050 C   0  0  0  0  0  0  0  0  0  0  0  0
   20.8500   63.2960   33.9160 C   0  0  0  0  0  0  0  0  0  0  0  0
   21.5200   64.2910   33.2150 C   0  0  0  0  0  0  0  0  0  0  0  0
   25.1690   65.1630   32.7090 C   0  0  0  0  0  0  0  0  0  0  0  0
   23.6790   65.3680   32.4640 C   0  0  0  0  0  0  0  0  0  0  0  0
   23.7880   61.2330   35.0820 C   0  0  0  0  0  0  0  0  0  0  0  0
   25.2690   61.4910   34.8170 C   0  0  0  0  0  0  0  0  0  0  0  0
  1  2  1  0  0  0  0
  1 26  1  1  0  0  0
  3  2  1  0  0  0  0
  3  4  2  0  0  0  0
  5  3  1  0  0  0  0
  6  8  1  0  0  0  0
  6  5  2  0  0  0  0
  7  6  1  0  0  0  0
  8  1  1  0  0  0  0
  9 10  1  0  0  0  0
  9  1  1  0  0  0  0
  9 13  1  0  0  0  0
 10 11  1  0  0  0  0
 11 12  1  0  0  0  0
 12 13  1  0  0  0  0
 14  5  1  0  0  0  0
 14 15  1  0  0  0  0
 15 25  2  0  0  0  0
 16 15  2  0  0  0  0
 16 17  2  0  0  0  0
 17 18  2  0  0  0  0
 17 24  1  0  0  0  0
 18 19  2  0  0  0  0
 19 20  1  0  0  0  0
 19 21  1  0  0  0  0
 22 21  2  0  0  0  0
 22 23  1  0  0  0  0
 24 22  1  0  0  0  0
 25 24  1  0  0  0  0
 26 27  1  0  0  0  0
 28 33  1  0  0  0  0
 28 29  2  0  0  0  0
 29 30  2  0  0  0  0
 30 31  1  0  0  0  0
 30 36  1  0  0  0  0
 32 27  1  0  0  0  0
 32 31  2  0  0  0  0
 33 32  1  0  0  0  0
 35 34  1  0  0  0  0
 35 28  1  0  0  0  0
 37 36  1  0  0  0  0
M  END
>  <minimizedAffinity>
-9.1497097

$$$$

 OpenBabel12271915183D

 37 41  0  0  1  0  0  0  0  0999 V2000
   14.3070   67.1850   31.5050 C   0  0  2  0  0  0  0  0  0  0  0  0
   15.4010   67.1410   30.5550 O   0  0  0  0  0  0  0  0  0  0  0  0
   16.1640   66.0790   30.2420 C   0  0  0  0  0  0  0  0  0  0  0  0
   16.9140   66.1130   29.2590 O   0  0  0  0  0  0  0  0  0  0  0  0
   16.0880   64.8830   31.0900 C   0  0  0  0  0  0  0  0  0  0  0  0
   15.1780   64.8110   32.0920 C   0  0  0  0  0  0  0  0  0  0  0  0
   15.0110   63.7890   32.8580 O   0  0  0  0  0  0  0  0  0  0  0  0
   14.2770   65.9660   32.4420 C   0  0  0  0  0  0  0  0  0  0  0  0
   13.0430   67.3030   30.6480 C   0  0  0  0  0  0  0  0  0  0  0  0
   13.2450   68.1020   29.3380 C   0  0  0  0  0  0  0  0  0  0  0  0
   12.3680   67.4460   28.2650 C   0  0  0  0  0  0  0  0  0  0  0  0
   11.5990   66.3320   28.9550 C   0  0  0  0  0  0  0  0  0  0  0  0
   12.4700   65.9590   30.1480 C   0  0  0  0  0  0  0  0  0  0  0  0
   17.0280   63.7520   30.7820 C   0  0  0  0  0  0  0  0  0  0  0  0
   18.3040   63.8430   31.5750 C   0  0  0  0  0  0  0  0  0  0  0  0
   19.4350   64.4410   31.1400 N   0  0  0  0  0  0  0  0  0  0  0  0
   20.3050   64.3120   32.1090 C   0  0  0  0  0  0  0  0  0  0  0  0
   21.6150   64.7230   32.2040 N   0  0  0  0  0  0  0  0  0  0  0  0
   22.2480   64.4570   33.2930 C   0  0  0  0  0  0  0  0  0  0  0  0
   23.6700   64.9030   33.4550 C   0  0  0  0  0  0  0  0  0  0  0  0
   21.6550   63.7160   34.4350 C   0  0  0  0  0  0  0  0  0  0  0  0
   20.3760   63.3410   34.3160 C   0  0  0  0  0  0  0  0  0  0  0  0
   19.6660   62.6130   35.4130 C   0  0  0  0  0  0  0  0  0  0  0  0
   19.6880   63.6500   33.1480 N   0  0  0  0  0  0  0  0  0  0  0  0
   18.4040   63.4210   32.8360 N   0  0  0  0  0  0  0  0  0  0  0  0
   14.6660   68.4580   32.2790 C   0  0  0  0  0  0  0  0  0  0  0  0
   15.7210   68.4640   33.3850 C   0  0  0  0  0  0  0  0  0  0  0  0
   19.2490   68.7140   32.0390 C   0  0  0  0  0  0  0  0  0  0  0  0
   19.5500   70.0160   32.2510 N   0  0  0  0  0  0  0  0  0  0  0  0
   18.6380   70.7930   32.8740 C   0  0  0  0  0  0  0  0  0  0  0  0
   17.4060   70.3080   33.2620 C   0  0  0  0  0  0  0  0  0  0  0  0
   17.0830   68.9790   33.0300 C   0  0  0  0  0  0  0  0  0  0  0  0
   18.0310   68.1690   32.4170 C   0  0  0  0  0  0  0  0  0  0  0  0
   21.6680   68.2320   31.8150 C   0  0  0  0  0  0  0  0  0  0  0  0
   20.2780   67.8910   31.2940 C   0  0  0  0  0  0  0  0  0  0  0  0
   18.9600   72.2530   33.0820 C   0  0  0  0  0  0  0  0  0  0  0  0
   18.5890   73.0250   31.8180 C   0  0  0  0  0  0  0  0  0  0  0  0
  1 26  1  1  0  0  0
  1  8  1  0  0  0  0
  2  1  1  0  0  0  0
  3  2  1  0  0  0  0
  3  5  1  0  0  0  0
  4  3  2  0  0  0  0
  5  6  2  0  0  0  0
  6  8  1  0  0  0  0
  6  7  1  0  0  0  0
  9  1  1  0  0  0  0
 10  9  1  0  0  0  0
 11 12  1  0  0  0  0
 11 10  1  0  0  0  0
 12 13  1  0  0  0  0
 13  9  1  0  0  0  0
 14  5  1  0  0  0  0
 14 15  1  0  0  0  0
 15 25  2  0  0  0  0
 16 15  2  0  0  0  0
 16 17  2  0  0  0  0
 17 18  2  0  0  0  0
 17 24  1  0  0  0  0
 18 19  2  0  0  0  0
 19 20  1  0  0  0  0
 19 21  1  0  0  0  0
 22 21  2  0  0  0  0
 22 23  1  0  0  0  0
 24 22  1  0  0  0  0
 25 24  1  0  0  0  0
 26 27  1  0  0  0  0
 28 29  2  0  0  0  0
 28 33  1  0  0  0  0
 29 30  2  0  0  0  0
 30 36  1  0  0  0  0
 30 31  1  0  0  0  0
 32 31  2  0  0  0  0
 32 27  1  0  0  0  0
 33 32  1  0  0  0  0
 35 34  1  0  0  0  0
 35 28  1  0  0  0  0
 37 36  1  0  0  0  0
M  END
>  <minimizedAffinity>
-9.06844234

$$$$

 OpenBabel12271915183D

 37 41  0  0  1  0  0  0  0  0999 V2000
   18.4790   69.3570   31.8950 C   0  0  2  0  0  0  0  0  0  0  0  0
   18.3280   68.4770   30.7530 O   0  0  0  0  0  0  0  0  0  0  0  0
   17.2680   67.7080   30.4530 C   0  0  0  0  0  0  0  0  0  0  0  0
   17.1730   67.1760   29.3390 O   0  0  0  0  0  0  0  0  0  0  0  0
   16.2300   67.5110   31.4720 C   0  0  0  0  0  0  0  0  0  0  0  0
   16.2830   68.1910   32.6440 C   0  0  0  0  0  0  0  0  0  0  0  0
   15.3990   68.1140   33.5770 O   0  0  0  0  0  0  0  0  0  0  0  0
   17.4350   69.0950   32.9940 C   0  0  0  0  0  0  0  0  0  0  0  0
   18.3890   70.7730   31.3190 C   0  0  0  0  0  0  0  0  0  0  0  0
   16.9530   71.3510   31.2950 C   0  0  0  0  0  0  0  0  0  0  0  0
   17.0610   72.8520   31.5840 C   0  0  0  0  0  0  0  0  0  0  0  0
   18.5430   73.1670   31.6930 C   0  0  0  0  0  0  0  0  0  0  0  0
   19.1780   71.8440   32.1040 C   0  0  0  0  0  0  0  0  0  0  0  0
   15.1110   66.5610   31.1500 C   0  0  0  0  0  0  0  0  0  0  0  0
   15.4210   65.1520   31.5810 C   0  0  0  0  0  0  0  0  0  0  0  0
   16.4980   64.4460   31.1720 N   0  0  0  0  0  0  0  0  0  0  0  0
   16.4100   63.2830   31.7650 C   0  0  0  0  0  0  0  0  0  0  0  0
   17.2260   62.1770   31.7030 N   0  0  0  0  0  0  0  0  0  0  0  0
   16.8940   61.1480   32.4020 C   0  0  0  0  0  0  0  0  0  0  0  0
   17.7630   59.9260   32.3870 C   0  0  0  0  0  0  0  0  0  0  0  0
   15.6750   61.0810   33.2470 C   0  0  0  0  0  0  0  0  0  0  0  0
   14.9080   62.1770   33.2940 C   0  0  0  0  0  0  0  0  0  0  0  0
   13.6710   62.2330   34.1320 C   0  0  0  0  0  0  0  0  0  0  0  0
   15.2820   63.2940   32.5560 N   0  0  0  0  0  0  0  0  0  0  0  0
   14.7010   64.5000   32.4950 N   0  0  0  0  0  0  0  0  0  0  0  0
   19.8800   68.9570   32.3690 C   0  0  0  0  0  0  0  0  0  0  0  0
   20.8840   68.2730   31.4420 C   0  0  0  0  0  0  0  0  0  0  0  0
   23.3060   65.5880   32.5580 C   0  0  0  0  0  0  0  0  0  0  0  0
   22.4790   64.5710   32.8930 N   0  0  0  0  0  0  0  0  0  0  0  0
   21.1520   64.7340   32.7070 C   0  0  0  0  0  0  0  0  0  0  0  0
   20.6200   65.9130   32.2250 C   0  0  0  0  0  0  0  0  0  0  0  0
   21.4600   66.9670   31.8980 C   0  0  0  0  0  0  0  0  0  0  0  0
   22.8290   66.7910   32.0600 C   0  0  0  0  0  0  0  0  0  0  0  0
   25.2690   64.1650   32.0530 C   0  0  0  0  0  0  0  0  0  0  0  0
   24.7810   65.3820   32.8280 C   0  0  0  0  0  0  0  0  0  0  0  0
   20.2260   63.6120   33.1100 C   0  0  0  0  0  0  0  0  0  0  0  0
   20.3090   63.4240   34.6230 C   0  0  0  0  0  0  0  0  0  0  0  0
  1 26  1  1  0  0  0
  1  8  1  0  0  0  0
  2  1  1  0  0  0  0
  3  2  1  0  0  0  0
  3  5  1  0  0  0  0
  4  3  2  0  0  0  0
  5  6  2  0  0  0  0
  6  8  1  0  0  0  0
  6  7  1  0  0  0  0
  9  1  1  0  0  0  0
  9 13  1  0  0  0  0
 10  9  1  0  0  0  0
 10 11  1  0  0  0  0
 11 12  1  0  0  0  0
 12 13  1  0  0  0  0
 14  5  1  0  0  0  0
 14 15  1  0  0  0  0
 15 25  2  0  0  0  0
 16 15  2  0  0  0  0
 16 17  2  0  0  0  0
 17 24  1  0  0  0  0
 18 17  2  0  0  0  0
 18 19  2  0  0  0  0
 19 21  1  0  0  0  0
 20 19  1  0  0  0  0
 21 22  2  0  0  0  0
 22 23  1  0  0  0  0
 24 22  1  0  0  0  0
 25 24  1  0  0  0  0
 27 32  1  0  0  0  0
 27 26  1  0  0  0  0
 28 35  1  0  0  0  0
 28 29  2  0  0  0  0
 30 29  2  0  0  0  0
 30 36  1  0  0  0  0
 31 30  1  0  0  0  0
 32 33  1  0  0  0  0
 32 31  2  0  0  0  0
 33 28  1  0  0  0  0
 34 35  1  0  0  0  0
 36 37  1  0  0  0  0
M  END
>  <minimizedAffinity>
-9.00142956

$$$$

 OpenBabel12271915183D

 37 41  0  0  1  0  0  0  0  0999 V2000
   18.4100   69.3310   31.8910 C   0  0  2  0  0  0  0  0  0  0  0  0
   18.2490   68.4580   30.7450 O   0  0  0  0  0  0  0  0  0  0  0  0
   17.1970   67.6690   30.4640 C   0  0  0  0  0  0  0  0  0  0  0  0
   17.0860   67.1450   29.3490 O   0  0  0  0  0  0  0  0  0  0  0  0
   16.1890   67.4430   31.5070 C   0  0  0  0  0  0  0  0  0  0  0  0
   16.2570   68.1150   32.6830 C   0  0  0  0  0  0  0  0  0  0  0  0
   15.3970   68.0130   33.6360 O   0  0  0  0  0  0  0  0  0  0  0  0
   17.3980   69.0400   33.0120 C   0  0  0  0  0  0  0  0  0  0  0  0
   18.2770   70.7500   31.3280 C   0  0  0  0  0  0  0  0  0  0  0  0
   16.8670   71.3640   31.5000 C   0  0  0  0  0  0  0  0  0  0  0  0
   17.0510   72.8620   31.7680 C   0  0  0  0  0  0  0  0  0  0  0  0
   18.5420   73.1390   31.6710 C   0  0  0  0  0  0  0  0  0  0  0  0
   19.1940   71.8000   31.9940 C   0  0  0  0  0  0  0  0  0  0  0  0
   15.0820   66.4740   31.2040 C   0  0  0  0  0  0  0  0  0  0  0  0
   15.4350   65.0660   31.6050 C   0  0  0  0  0  0  0  0  0  0  0  0
   16.5530   64.4160   31.2120 N   0  0  0  0  0  0  0  0  0  0  0  0
   16.4930   63.2330   31.7690 C   0  0  0  0  0  0  0  0  0  0  0  0
   17.3560   62.1630   31.7040 N   0  0  0  0  0  0  0  0  0  0  0  0
   17.0430   61.1010   32.3610 C   0  0  0  0  0  0  0  0  0  0  0  0
   17.9620   59.9170   32.3410 C   0  0  0  0  0  0  0  0  0  0  0  0
   15.8010   60.9600   33.1620 C   0  0  0  0  0  0  0  0  0  0  0  0
   14.9890   62.0220   33.2140 C   0  0  0  0  0  0  0  0  0  0  0  0
   13.7240   62.0040   34.0110 C   0  0  0  0  0  0  0  0  0  0  0  0
   15.3410   63.1750   32.5210 N   0  0  0  0  0  0  0  0  0  0  0  0
   14.7130   64.3590   32.4750 N   0  0  0  0  0  0  0  0  0  0  0  0
   19.8300   68.9560   32.3260 C   0  0  0  0  0  0  0  0  0  0  0  0
   20.7930   68.2150   31.4000 C   0  0  0  0  0  0  0  0  0  0  0  0
   21.2670   64.6710   32.6360 C   0  0  0  0  0  0  0  0  0  0  0  0
   22.6130   64.5760   32.7390 N   0  0  0  0  0  0  0  0  0  0  0  0
   23.3570   65.6670   32.4630 C   0  0  0  0  0  0  0  0  0  0  0  0
   22.7880   66.8540   32.0460 C   0  0  0  0  0  0  0  0  0  0  0  0
   21.4110   66.9530   31.9190 C   0  0  0  0  0  0  0  0  0  0  0  0
   20.6410   65.8390   32.2320 C   0  0  0  0  0  0  0  0  0  0  0  0
   20.2230   63.2850   34.4040 C   0  0  0  0  0  0  0  0  0  0  0  0
   20.4740   63.4100   32.9060 C   0  0  0  0  0  0  0  0  0  0  0  0
   24.8600   65.5540   32.5470 C   0  0  0  0  0  0  0  0  0  0  0  0
   25.2470   64.0780   32.4800 C   0  0  0  0  0  0  0  0  0  0  0  0
  1 26  1  1  0  0  0
  1  8  1  0  0  0  0
  2  1  1  0  0  0  0
  3  2  1  0  0  0  0
  3  5  1  0  0  0  0
  4  3  2  0  0  0  0
  5  6  2  0  0  0  0
  6  8  1  0  0  0  0
  6  7  1  0  0  0  0
  9 10  1  0  0  0  0
  9  1  1  0  0  0  0
  9 13  1  0  0  0  0
 10 11  1  0  0  0  0
 12 11  1  0  0  0  0
 12 13  1  0  0  0  0
 14  5  1  0  0  0  0
 14 15  1  0  0  0  0
 15 25  2  0  0  0  0
 16 15  2  0  0  0  0
 16 17  2  0  0  0  0
 17 24  1  0  0  0  0
 18 17  2  0  0  0  0
 18 19  2  0  0  0  0
 19 21  1  0  0  0  0
 20 19  1  0  0  0  0
 21 22  2  0  0  0  0
 22 23  1  0  0  0  0
 24 22  1  0  0  0  0
 25 24  1  0  0  0  0
 27 32  1  0  0  0  0
 27 26  1  0  0  0  0
 28 29  2  0  0  0  0
 28 35  1  0  0  0  0
 30 36  1  0  0  0  0
 30 29  2  0  0  0  0
 31 30  1  0  0  0  0
 32 31  2  0  0  0  0
 32 33  1  0  0  0  0
 33 28  1  0  0  0  0
 35 34  1  0  0  0  0
 37 36  1  0  0  0  0
M  END
>  <minimizedAffinity>
-8.93227673

$$$$

 OpenBabel12271915183D

 37 41  0  0  1  0  0  0  0  0999 V2000
   18.4170   69.0360   31.8770 C   0  0  2  0  0  0  0  0  0  0  0  0
   18.1710   68.0970   30.8000 O   0  0  0  0  0  0  0  0  0  0  0  0
   17.0270   67.4420   30.5380 C   0  0  0  0  0  0  0  0  0  0  0  0
   16.8770   66.8430   29.4660 O   0  0  0  0  0  0  0  0  0  0  0  0
   15.9630   67.4510   31.5500 C   0  0  0  0  0  0  0  0  0  0  0  0
   16.0880   68.2070   32.6690 C   0  0  0  0  0  0  0  0  0  0  0  0
   15.1920   68.3100   33.5880 O   0  0  0  0  0  0  0  0  0  0  0  0
   17.3390   68.9880   32.9720 C   0  0  0  0  0  0  0  0  0  0  0  0
   18.5070   70.4050   31.1950 C   0  0  0  0  0  0  0  0  0  0  0  0
   17.1500   70.9400   30.6780 C   0  0  0  0  0  0  0  0  0  0  0  0
   17.1550   72.4600   30.8710 C   0  0  0  0  0  0  0  0  0  0  0  0
   18.5270   72.8230   31.4150 C   0  0  0  0  0  0  0  0  0  0  0  0
   19.0060   71.5510   32.1040 C   0  0  0  0  0  0  0  0  0  0  0  0
   14.7390   66.6230   31.2780 C   0  0  0  0  0  0  0  0  0  0  0  0
   14.7830   65.2960   31.9870 C   0  0  0  0  0  0  0  0  0  0  0  0
   13.8530   64.8670   32.8690 N   0  0  0  0  0  0  0  0  0  0  0  0
   14.2450   63.6800   33.2540 C   0  0  0  0  0  0  0  0  0  0  0  0
   13.6870   62.7930   34.1460 N   0  0  0  0  0  0  0  0  0  0  0  0
   14.2970   61.6760   34.3410 C   0  0  0  0  0  0  0  0  0  0  0  0
   13.7170   60.6660   35.2850 C   0  0  0  0  0  0  0  0  0  0  0  0
   15.5720   61.3030   33.6770 C   0  0  0  0  0  0  0  0  0  0  0  0
   16.0830   62.1820   32.8070 C   0  0  0  0  0  0  0  0  0  0  0  0
   17.3480   61.9030   32.0610 C   0  0  0  0  0  0  0  0  0  0  0  0
   15.4100   63.3780   32.5830 N   0  0  0  0  0  0  0  0  0  0  0  0
   15.7060   64.3680   31.7290 N   0  0  0  0  0  0  0  0  0  0  0  0
   19.7540   68.5050   32.4040 C   0  0  0  0  0  0  0  0  0  0  0  0
   20.8400   67.9710   31.4700 C   0  0  0  0  0  0  0  0  0  0  0  0
   23.5690   65.5480   32.4690 C   0  0  0  0  0  0  0  0  0  0  0  0
   22.8650   64.4560   32.8460 N   0  0  0  0  0  0  0  0  0  0  0  0
   21.5210   64.4850   32.7270 C   0  0  0  0  0  0  0  0  0  0  0  0
   20.8510   65.6020   32.2700 C   0  0  0  0  0  0  0  0  0  0  0  0
   21.5650   66.7320   31.9000 C   0  0  0  0  0  0  0  0  0  0  0  0
   22.9510   66.6940   31.9930 C   0  0  0  0  0  0  0  0  0  0  0  0
   25.5330   64.0430   32.5830 C   0  0  0  0  0  0  0  0  0  0  0  0
   25.0690   65.4910   32.6660 C   0  0  0  0  0  0  0  0  0  0  0  0
   20.7330   63.2790   33.1780 C   0  0  0  0  0  0  0  0  0  0  0  0
   20.2210   63.5270   34.5950 C   0  0  0  0  0  0  0  0  0  0  0  0
  1 26  1  1  0  0  0
  1  8  1  0  0  0  0
  2  1  1  0  0  0  0
  3  2  1  0  0  0  0
  3  5  1  0  0  0  0
  4  3  2  0  0  0  0
  5  6  2  0  0  0  0
  6  8  1  0  0  0  0
  6  7  1  0  0  0  0
  9  1  1  0  0  0  0
  9 13  1  0  0  0  0
 10 11  1  0  0  0  0
 10  9  1  0  0  0  0
 11 12  1  0  0  0  0
 12 13  1  0  0  0  0
 14  5  1  0  0  0  0
 14 15  1  0  0  0  0
 15 16  2  0  0  0  0
 16 17  2  0  0  0  0
 17 18  2  0  0  0  0
 18 19  2  0  0  0  0
 19 20  1  0  0  0  0
 21 19  1  0  0  0  0
 22 21  2  0  0  0  0
 23 22  1  0  0  0  0
 24 22  1  0  0  0  0
 24 17  1  0  0  0  0
 25 15  2  0  0  0  0
 25 24  1  0  0  0  0
 27 32  1  0  0  0  0
 27 26  1  0  0  0  0
 28 35  1  0  0  0  0
 28 29  2  0  0  0  0
 30 29  2  0  0  0  0
 30 36  1  0  0  0  0
 31 30  1  0  0  0  0
 32 33  1  0  0  0  0
 32 31  2  0  0  0  0
 33 28  1  0  0  0  0
 34 35  1  0  0  0  0
 36 37  1  0  0  0  0
M  END
>  <minimizedAffinity>
-8.8500824

$$$$

 OpenBabel12271915183D

 37 41  0  0  1  0  0  0  0  0999 V2000
   22.5540   64.5080   32.9050 C   0  0  2  0  0  0  0  0  0  0  0  0
   21.9300   63.9070   34.0680 O   0  0  0  0  0  0  0  0  0  0  0  0
   21.2220   62.7660   34.1120 C   0  0  0  0  0  0  0  0  0  0  0  0
   20.9330   62.2480   35.1990 O   0  0  0  0  0  0  0  0  0  0  0  0
   20.7990   62.1500   32.8490 C   0  0  0  0  0  0  0  0  0  0  0  0
   21.2200   62.6570   31.6650 C   0  0  0  0  0  0  0  0  0  0  0  0
   20.9360   62.1600   30.5110 O   0  0  0  0  0  0  0  0  0  0  0  0
   22.0510   63.9100   31.5800 C   0  0  0  0  0  0  0  0  0  0  0  0
   24.0580   64.3030   33.1130 C   0  0  0  0  0  0  0  0  0  0  0  0
   24.4180   62.9770   33.8250 C   0  0  0  0  0  0  0  0  0  0  0  0
   25.7310   62.4750   33.2140 C   0  0  0  0  0  0  0  0  0  0  0  0
   26.1790   63.5320   32.2190 C   0  0  0  0  0  0  0  0  0  0  0  0
   24.8890   64.2340   31.8130 C   0  0  0  0  0  0  0  0  0  0  0  0
   19.9190   60.9340   32.9290 C   0  0  0  0  0  0  0  0  0  0  0  0
   18.4570   61.2920   32.9280 C   0  0  0  0  0  0  0  0  0  0  0  0
   17.9770   62.5530   33.0120 N   0  0  0  0  0  0  0  0  0  0  0  0
   16.6730   62.4430   32.9760 C   0  0  0  0  0  0  0  0  0  0  0  0
   15.6870   63.4010   33.0360 N   0  0  0  0  0  0  0  0  0  0  0  0
   14.4630   63.0050   32.9800 C   0  0  0  0  0  0  0  0  0  0  0  0
   13.3530   64.0120   33.0180 C   0  0  0  0  0  0  0  0  0  0  0  0
   14.0590   61.5800   32.8760 C   0  0  0  0  0  0  0  0  0  0  0  0
   15.0420   60.6740   32.8070 C   0  0  0  0  0  0  0  0  0  0  0  0
   14.7540   59.2130   32.6740 C   0  0  0  0  0  0  0  0  0  0  0  0
   16.3630   61.1070   32.8460 N   0  0  0  0  0  0  0  0  0  0  0  0
   17.4910   60.3910   32.7420 N   0  0  0  0  0  0  0  0  0  0  0  0
   22.0870   65.9590   33.0600 C   0  0  0  0  0  0  0  0  0  0  0  0
   21.7940   66.8490   31.8530 C   0  0  0  0  0  0  0  0  0  0  0  0
   18.0440   67.2750   31.5780 C   0  0  0  0  0  0  0  0  0  0  0  0
   17.8880   68.6070   31.7560 N   0  0  0  0  0  0  0  0  0  0  0  0
   18.9930   69.3680   31.9100 C   0  0  0  0  0  0  0  0  0  0  0  0
   20.2610   68.8230   31.9270 C   0  0  0  0  0  0  0  0  0  0  0  0
   20.4260   67.4550   31.7650 C   0  0  0  0  0  0  0  0  0  0  0  0
   19.2930   66.6740   31.5760 C   0  0  0  0  0  0  0  0  0  0  0  0
   16.5140   66.1450   29.9920 C   0  0  0  0  0  0  0  0  0  0  0  0
   16.7790   66.4530   31.4600 C   0  0  0  0  0  0  0  0  0  0  0  0
   18.8190   70.8500   32.1410 C   0  0  0  0  0  0  0  0  0  0  0  0
   18.8880   71.1270   33.6410 C   0  0  0  0  0  0  0  0  0  0  0  0
  1 26  1  1  0  0  0
  1  9  1  0  0  0  0
  1  2  1  0  0  0  0
  2  3  1  0  0  0  0
  3  4  2  0  0  0  0
  5 14  1  0  0  0  0
  5  3  1  0  0  0  0
  6  5  2  0  0  0  0
  7  6  1  0  0  0  0
  8  6  1  0  0  0  0
  8  1  1  0  0  0  0
  9 10  1  0  0  0  0
 11 10  1  0  0  0  0
 12 11  1  0  0  0  0
 13 12  1  0  0  0  0
 13  9  1  0  0  0  0
 15 14  1  0  0  0  0
 15 16  2  0  0  0  0
 17 16  2  0  0  0  0
 17 18  2  0  0  0  0
 19 20  1  0  0  0  0
 19 18  2  0  0  0  0
 21 19  1  0  0  0  0
 22 24  1  0  0  0  0
 22 21  2  0  0  0  0
 23 22  1  0  0  0  0
 24 17  1  0  0  0  0
 25 24  1  0  0  0  0
 25 15  2  0  0  0  0
 27 26  1  0  0  0  0
 28 29  2  0  0  0  0
 29 30  2  0  0  0  0
 30 31  1  0  0  0  0
 30 36  1  0  0  0  0
 32 27  1  0  0  0  0
 32 31  2  0  0  0  0
 33 28  1  0  0  0  0
 33 32  1  0  0  0  0
 34 35  1  0  0  0  0
 35 28  1  0  0  0  0
 36 37  1  0  0  0  0
M  END
>  <minimizedAffinity>
-8.84896183

$$$$
