
 OpenBabel12271915173D

 42 46  0  0  1  0  0  0  0  0999 V2000
   17.4350   66.0910   31.3050 C   0  0  1  0  0  0  0  0  0  0  0  0
   16.3990   66.8360   32.2960 C   0  0  1  0  0  0  0  0  0  0  0  0
   16.7290   68.2450   32.8700 C   0  0  0  0  0  0  0  0  0  0  0  0
   17.9390   68.8590   32.5750 C   0  0  0  0  0  0  0  0  0  0  0  0
   18.2010   70.1150   33.0640 C   0  0  0  0  0  0  0  0  0  0  0  0
   19.3410   70.8180   32.8550 O   0  0  0  0  0  0  0  0  0  0  0  0
   18.9430   72.1550   33.3140 C   0  0  0  0  0  0  0  0  0  0  0  0
   17.7670   72.0000   34.1990 O   0  0  0  0  0  0  0  0  0  0  0  0
   17.3130   70.7770   33.8180 C   0  0  0  0  0  0  0  0  0  0  0  0
   16.1080   70.2260   34.1380 C   0  0  0  0  0  0  0  0  0  0  0  0
   15.7870   68.8920   33.6460 C   0  0  0  0  0  0  0  0  0  0  0  0
   14.4020   68.4740   34.0370 C   0  0  0  0  0  0  0  0  0  0  0  0
   13.7930   67.5730   33.1090 C   0  0  0  0  0  0  0  0  0  0  0  0
   14.2170   67.9470   31.6770 N   0  0  2  0  0  0  0  0  0  0  0  0
   14.6230   68.9530   31.6820 H   0  0  0  0  0  0  0  0  0  0  0  0
   13.1720   67.6960   30.7410 C   0  0  0  0  0  0  0  0  0  0  0  0
   13.1620   66.1760   30.6740 C   0  0  0  0  0  0  0  0  0  0  0  0
   14.5520   65.7030   31.0110 C   0  0  0  0  0  0  0  0  0  0  0  0
   15.3500   67.0140   31.2600 C   0  0  2  0  0  0  0  0  0  0  0  0
   16.0250   67.4280   30.0380 C   0  0  0  0  0  0  0  0  0  0  0  0
   17.2590   66.9590   30.0650 C   0  0  2  0  0  0  0  0  0  0  0  0
   18.2780   67.0920   29.1830 O   0  0  0  0  0  0  0  0  0  0  0  0
   19.1290   68.3010   29.3480 C   0  0  0  0  0  0  0  0  0  0  0  0
   18.8160   65.9190   31.8490 O   0  0  0  0  0  0  0  0  0  0  0  0
   19.1590   64.6250   31.6800 C   0  0  0  0  0  0  0  0  0  0  0  0
   18.6110   63.7350   31.1000 O   0  0  0  0  0  0  0  0  0  0  0  0
   20.4720   64.2710   32.4880 C   0  0  2  0  0  0  0  0  0  0  0  0
   21.0350   63.0500   31.7940 O   0  0  0  0  0  0  0  0  0  0  0  0
   20.4680   62.3160   32.0260 H   0  0  0  0  0  0  0  0  0  0  0  0
   20.2820   63.7970   33.8780 C   0  0  0  0  0  0  0  0  0  0  0  0
   20.4020   62.2400   33.9670 C   0  0  0  0  0  0  0  0  0  0  0  0
   21.5110   61.7580   34.3300 O   0  0  0  0  0  0  0  0  0  0  0  0
   19.3040   61.6160   33.6160 O   0  0  0  0  0  0  0  0  0  0  0  0
   19.4770   60.2670   32.9330 C   0  0  0  0  0  0  0  0  0  0  0  0
   21.5430   65.3570   32.5010 C   0  0  0  0  0  0  0  0  0  0  0  0
   22.9850   64.9490   32.1960 C   0  0  0  0  0  0  0  0  0  0  0  0
   23.8260   64.6960   33.4560 C   0  0  0  0  0  0  0  0  0  0  0  0
   24.5710   63.3760   33.3630 C   0  0  0  0  0  0  0  0  0  0  0  0
   25.8450   63.5960   32.5690 C   0  0  0  0  0  0  0  0  0  0  0  0
   24.9320   62.7920   34.7380 C   0  0  0  0  0  0  0  0  0  0  0  0
   23.7630   62.3880   32.6410 O   0  0  0  0  0  0  0  0  0  0  0  0
   23.8440   62.5850   31.7410 H   0  0  0  0  0  0  0  0  0  0  0  0
  1 24  1  1  0  0  0
  1  2  1  0  0  0  0
  2 19  1  6  0  0  0
  2  3  1  0  0  0  0
  3 11  1  0  0  0  0
  4  3  2  0  0  0  0
  4  5  1  0  0  0  0
  5  9  2  0  0  0  0
  6  5  1  0  0  0  0
  6  7  1  0  0  0  0
  7  8  1  0  0  0  0
  9 10  1  0  0  0  0
  9  8  1  0  0  0  0
 11 12  1  0  0  0  0
 11 10  2  0  0  0  0
 13 12  1  0  0  0  0
 14 19  1  6  0  0  0
 14 15  1  0  0  0  0
 14 13  1  0  0  0  0
 16 14  1  0  0  0  0
 17 16  1  0  0  0  0
 17 18  1  0  0  0  0
 18 19  1  0  0  0  0
 19 20  1  6  0  0  0
 20 21  1  0  0  0  0
 21 22  1  6  0  0  0
 21  1  1  0  0  0  0
 22 23  1  0  0  0  0
 25 24  1  0  0  0  0
 25 27  1  0  0  0  0
 26 25  2  0  0  0  0
 27 35  1  6  0  0  0
 27 30  1  0  0  0  0
 28 29  1  0  0  0  0
 28 27  1  0  0  0  0
 30 31  1  0  0  0  0
 31 32  2  0  0  0  0
 33 31  1  0  0  0  0
 34 33  1  0  0  0  0
 36 35  1  0  0  0  0
 36 37  1  0  0  0  0
 38 37  1  0  0  0  0
 38 40  1  0  0  0  0
 39 38  1  0  0  0  0
 41 38  1  0  0  0  0
 42 41  1  0  0  0  0
M  END
>  <minimizedAffinity>
-7.83358431

$$$$

 OpenBabel12271915173D

 42 46  0  0  1  0  0  0  0  0999 V2000
   14.2750   65.7780   32.0400 C   0  0  1  0  0  0  0  0  0  0  0  0
   14.5400   66.9280   33.1440 C   0  0  1  0  0  0  0  0  0  0  0  0
   15.2950   68.2340   32.7580 C   0  0  0  0  0  0  0  0  0  0  0  0
   15.7920   68.4060   31.4730 C   0  0  0  0  0  0  0  0  0  0  0  0
   16.4270   69.5760   31.1420 C   0  0  0  0  0  0  0  0  0  0  0  0
   16.9600   69.8650   29.9290 O   0  0  0  0  0  0  0  0  0  0  0  0
   17.1980   71.3090   30.0550 C   0  0  0  0  0  0  0  0  0  0  0  0
   17.2340   71.6390   31.4980 O   0  0  0  0  0  0  0  0  0  0  0  0
   16.5780   70.5710   32.0250 C   0  0  0  0  0  0  0  0  0  0  0  0
   16.1090   70.4620   33.3000 C   0  0  0  0  0  0  0  0  0  0  0  0
   15.4320   69.2340   33.7010 C   0  0  0  0  0  0  0  0  0  0  0  0
   14.9260   69.3130   35.1100 C   0  0  0  0  0  0  0  0  0  0  0  0
   13.7570   68.5240   35.3430 C   0  0  0  0  0  0  0  0  0  0  0  0
   12.8580   68.5560   34.0930 N   0  0  2  0  0  0  0  0  0  0  0  0
   13.1650   69.3820   33.4610 H   0  0  0  0  0  0  0  0  0  0  0  0
   11.4770   68.5110   34.4430 C   0  0  0  0  0  0  0  0  0  0  0  0
   11.3120   67.0720   34.9060 C   0  0  0  0  0  0  0  0  0  0  0  0
   12.3530   66.2490   34.1930 C   0  0  0  0  0  0  0  0  0  0  0  0
   13.1050   67.2760   33.3000 C   0  0  2  0  0  0  0  0  0  0  0  0
   12.5240   67.2980   31.9650 C   0  0  0  0  0  0  0  0  0  0  0  0
   13.2230   66.4840   31.1950 C   0  0  2  0  0  0  0  0  0  0  0  0
   13.0970   66.1810   29.8810 O   0  0  0  0  0  0  0  0  0  0  0  0
   13.3660   67.2920   28.9280 C   0  0  0  0  0  0  0  0  0  0  0  0
   15.5000   65.2690   31.3530 O   0  0  0  0  0  0  0  0  0  0  0  0
   15.9500   64.2110   32.0590 C   0  0  0  0  0  0  0  0  0  0  0  0
   15.4610   63.6040   32.9660 O   0  0  0  0  0  0  0  0  0  0  0  0
   17.4180   63.8140   31.6220 C   0  0  2  0  0  0  0  0  0  0  0  0
   17.2300   62.7650   30.5470 O   0  0  0  0  0  0  0  0  0  0  0  0
   16.9440   61.9660   30.9900 H   0  0  0  0  0  0  0  0  0  0  0  0
   18.2360   63.1040   32.6320 C   0  0  0  0  0  0  0  0  0  0  0  0
   18.3040   61.5710   32.3290 C   0  0  0  0  0  0  0  0  0  0  0  0
   17.2780   60.8780   32.5820 O   0  0  0  0  0  0  0  0  0  0  0  0
   19.4650   61.1880   31.8590 O   0  0  0  0  0  0  0  0  0  0  0  0
   20.6370   62.1340   32.0870 C   0  0  0  0  0  0  0  0  0  0  0  0
   18.2570   64.9500   31.0470 C   0  0  0  0  0  0  0  0  0  0  0  0
   19.2780   65.6250   31.9650 C   0  0  0  0  0  0  0  0  0  0  0  0
   18.9270   67.0820   32.3000 C   0  0  0  0  0  0  0  0  0  0  0  0
   19.9220   68.0440   31.6730 C   0  0  0  0  0  0  0  0  0  0  0  0
   19.8780   69.3520   32.4390 C   0  0  0  0  0  0  0  0  0  0  0  0
   21.3620   67.5070   31.6810 C   0  0  0  0  0  0  0  0  0  0  0  0
   19.5450   68.3280   30.2840 O   0  0  0  0  0  0  0  0  0  0  0  0
   18.8560   68.9440   30.3180 H   0  0  0  0  0  0  0  0  0  0  0  0
  1 24  1  6  0  0  0
  1  2  1  0  0  0  0
  2 19  1  6  0  0  0
  3  2  1  0  0  0  0
  3 11  2  0  0  0  0
  4  3  1  0  0  0  0
  5  4  2  0  0  0  0
  5  9  1  0  0  0  0
  6  7  1  0  0  0  0
  6  5  1  0  0  0  0
  7  8  1  0  0  0  0
  8  9  1  0  0  0  0
  9 10  2  0  0  0  0
 10 11  1  0  0  0  0
 11 12  1  0  0  0  0
 12 13  1  0  0  0  0
 14 19  1  6  0  0  0
 14 16  1  0  0  0  0
 14 13  1  0  0  0  0
 15 14  1  0  0  0  0
 16 17  1  0  0  0  0
 18 17  1  0  0  0  0
 19 20  1  6  0  0  0
 19 18  1  0  0  0  0
 21 22  1  1  0  0  0
 21 20  1  0  0  0  0
 21  1  1  0  0  0  0
 23 22  1  0  0  0  0
 24 25  1  0  0  0  0
 25 26  2  0  0  0  0
 27 35  1  6  0  0  0
 27 25  1  0  0  0  0
 27 30  1  0  0  0  0
 28 29  1  0  0  0  0
 28 27  1  0  0  0  0
 31 32  2  0  0  0  0
 31 30  1  0  0  0  0
 33 34  1  0  0  0  0
 33 31  1  0  0  0  0
 35 36  1  0  0  0  0
 36 37  1  0  0  0  0
 38 40  1  0  0  0  0
 38 37  1  0  0  0  0
 38 39  1  0  0  0  0
 41 42  1  0  0  0  0
 41 38  1  0  0  0  0
M  END
>  <minimizedAffinity>
-6.77386427

$$$$

 OpenBabel12271915173D

 42 46  0  0  1  0  0  0  0  0999 V2000
   15.1090   65.7180   31.0730 C   0  0  1  0  0  0  0  0  0  0  0  0
   14.0330   66.6950   31.7760 C   0  0  1  0  0  0  0  0  0  0  0  0
   14.5010   67.9720   32.5340 C   0  0  0  0  0  0  0  0  0  0  0  0
   15.8540   68.2610   32.6560 C   0  0  0  0  0  0  0  0  0  0  0  0
   16.2480   69.4060   33.3010 C   0  0  0  0  0  0  0  0  0  0  0  0
   17.5320   69.7980   33.4920 O   0  0  0  0  0  0  0  0  0  0  0  0
   17.3470   71.1900   33.9220 C   0  0  0  0  0  0  0  0  0  0  0  0
   15.9570   71.3340   34.4100 O   0  0  0  0  0  0  0  0  0  0  0  0
   15.3610   70.2670   33.8140 C   0  0  0  0  0  0  0  0  0  0  0  0
   14.0200   70.0390   33.7230 C   0  0  0  0  0  0  0  0  0  0  0  0
   13.5520   68.8320   33.0520 C   0  0  0  0  0  0  0  0  0  0  0  0
   12.0560   68.7770   32.9860 C   0  0  0  0  0  0  0  0  0  0  0  0
   11.5590   68.0650   31.8510 C   0  0  0  0  0  0  0  0  0  0  0  0
   12.4740   68.3270   30.6400 N   0  0  2  0  0  0  0  0  0  0  0  0
   13.0880   69.1960   30.8450 H   0  0  0  0  0  0  0  0  0  0  0  0
   11.7330   68.3530   29.4230 C   0  0  0  0  0  0  0  0  0  0  0  0
   11.3790   66.8860   29.2320 C   0  0  0  0  0  0  0  0  0  0  0  0
   12.4450   66.0750   29.9200 C   0  0  0  0  0  0  0  0  0  0  0  0
   13.4220   67.1390   30.4980 C   0  0  2  0  0  0  0  0  0  0  0  0
   14.5130   67.3750   29.5630 C   0  0  0  0  0  0  0  0  0  0  0  0
   15.5310   66.6080   29.9110 C   0  0  2  0  0  0  0  0  0  0  0  0
   16.7690   66.4830   29.3780 O   0  0  0  0  0  0  0  0  0  0  0  0
   17.8130   67.3830   29.9380 C   0  0  0  0  0  0  0  0  0  0  0  0
   16.1770   65.1980   31.9800 O   0  0  0  0  0  0  0  0  0  0  0  0
   15.9040   63.8990   32.2240 C   0  0  0  0  0  0  0  0  0  0  0  0
   14.9460   63.3740   32.7110 O   0  0  0  0  0  0  0  0  0  0  0  0
   17.1390   62.9780   31.8670 C   0  0  2  0  0  0  0  0  0  0  0  0
   16.6530   62.1030   30.7320 O   0  0  0  0  0  0  0  0  0  0  0  0
   16.0500   61.4670   31.1140 H   0  0  0  0  0  0  0  0  0  0  0  0
   17.5410   61.9890   32.8930 C   0  0  0  0  0  0  0  0  0  0  0  0
   17.2740   60.5270   32.4040 C   0  0  0  0  0  0  0  0  0  0  0  0
   16.1060   60.0660   32.5470 O   0  0  0  0  0  0  0  0  0  0  0  0
   18.3390   59.9430   31.9160 O   0  0  0  0  0  0  0  0  0  0  0  0
   19.6470   60.1790   32.6600 C   0  0  0  0  0  0  0  0  0  0  0  0
   18.3920   63.7170   31.4070 C   0  0  0  0  0  0  0  0  0  0  0  0
   19.4860   63.9900   32.4410 C   0  0  0  0  0  0  0  0  0  0  0  0
   20.8870   63.5720   31.9700 C   0  0  0  0  0  0  0  0  0  0  0  0
   21.8320   63.3990   33.1460 C   0  0  0  0  0  0  0  0  0  0  0  0
   22.7630   64.5950   33.1980 C   0  0  0  0  0  0  0  0  0  0  0  0
   21.0990   63.2770   34.4910 C   0  0  0  0  0  0  0  0  0  0  0  0
   22.6570   62.2010   32.9620 O   0  0  0  0  0  0  0  0  0  0  0  0
   23.3230   62.4280   32.3620 H   0  0  0  0  0  0  0  0  0  0  0  0
  1  2  1  0  0  0  0
  1 24  1  1  0  0  0
  2 19  1  6  0  0  0
  2  3  1  0  0  0  0
  3  4  2  0  0  0  0
  3 11  1  0  0  0  0
  4  5  1  0  0  0  0
  5  6  1  0  0  0  0
  5  9  2  0  0  0  0
  6  7  1  0  0  0  0
  7  8  1  0  0  0  0
  9  8  1  0  0  0  0
 10  9  1  0  0  0  0
 11 10  2  0  0  0  0
 12 11  1  0  0  0  0
 13 12  1  0  0  0  0
 14 19  1  6  0  0  0
 14 15  1  0  0  0  0
 14 13  1  0  0  0  0
 16 14  1  0  0  0  0
 17 16  1  0  0  0  0
 17 18  1  0  0  0  0
 18 19  1  0  0  0  0
 19 20  1  6  0  0  0
 20 21  1  0  0  0  0
 21 22  1  6  0  0  0
 21  1  1  0  0  0  0
 22 23  1  0  0  0  0
 24 25  1  0  0  0  0
 25 26  2  0  0  0  0
 27 35  1  6  0  0  0
 27 25  1  0  0  0  0
 27 30  1  0  0  0  0
 28 29  1  0  0  0  0
 28 27  1  0  0  0  0
 31 32  2  0  0  0  0
 31 30  1  0  0  0  0
 33 31  1  0  0  0  0
 33 34  1  0  0  0  0
 35 36  1  0  0  0  0
 37 36  1  0  0  0  0
 37 38  1  0  0  0  0
 38 39  1  0  0  0  0
 38 40  1  0  0  0  0
 41 38  1  0  0  0  0
 42 41  1  0  0  0  0
M  END
>  <minimizedAffinity>
-6.73093367

$$$$

 OpenBabel12271915173D

 42 46  0  0  1  0  0  0  0  0999 V2000
   14.6170   66.2190   31.7020 C   0  0  1  0  0  0  0  0  0  0  0  0
   14.6070   67.1570   33.0170 C   0  0  1  0  0  0  0  0  0  0  0  0
   15.6610   68.2900   33.1870 C   0  0  0  0  0  0  0  0  0  0  0  0
   16.6520   68.4790   32.2330 C   0  0  0  0  0  0  0  0  0  0  0  0
   17.5530   69.5020   32.3830 C   0  0  0  0  0  0  0  0  0  0  0  0
   18.5680   69.7880   31.5300 O   0  0  0  0  0  0  0  0  0  0  0  0
   18.9730   71.1180   32.0000 C   0  0  0  0  0  0  0  0  0  0  0  0
   18.4840   71.2790   33.3880 O   0  0  0  0  0  0  0  0  0  0  0  0
   17.5020   70.3390   33.4280 C   0  0  0  0  0  0  0  0  0  0  0  0
   16.5510   70.2060   34.3940 C   0  0  0  0  0  0  0  0  0  0  0  0
   15.5740   69.1300   34.2810 C   0  0  0  0  0  0  0  0  0  0  0  0
   14.5670   69.1730   35.3910 C   0  0  0  0  0  0  0  0  0  0  0  0
   13.2880   68.6500   35.0240 C   0  0  0  0  0  0  0  0  0  0  0  0
   12.9850   69.0160   33.5590 N   0  0  2  0  0  0  0  0  0  0  0  0
   13.6530   69.8120   33.2500 H   0  0  0  0  0  0  0  0  0  0  0  0
   11.5930   69.2490   33.3570 C   0  0  0  0  0  0  0  0  0  0  0  0
   11.0170   67.8440   33.4520 C   0  0  0  0  0  0  0  0  0  0  0  0
   12.1020   66.8860   33.0360 C   0  0  0  0  0  0  0  0  0  0  0  0
   13.3100   67.8030   32.6920 C   0  0  2  0  0  0  0  0  0  0  0  0
   13.3250   68.0950   31.2660 C   0  0  0  0  0  0  0  0  0  0  0  0
   14.1270   67.2290   30.6720 C   0  0  2  0  0  0  0  0  0  0  0  0
   14.4890   67.1010   29.3740 O   0  0  0  0  0  0  0  0  0  0  0  0
   13.3780   66.9000   28.4050 C   0  0  0  0  0  0  0  0  0  0  0  0
   15.9110   65.5190   31.4360 O   0  0  0  0  0  0  0  0  0  0  0  0
   15.8330   64.2960   31.9990 C   0  0  0  0  0  0  0  0  0  0  0  0
   14.9950   63.8010   32.6940 O   0  0  0  0  0  0  0  0  0  0  0  0
   17.1470   63.4580   31.7300 C   0  0  2  0  0  0  0  0  0  0  0  0
   16.8300   62.6240   30.5070 O   0  0  0  0  0  0  0  0  0  0  0  0
   16.2260   61.9390   30.7910 H   0  0  0  0  0  0  0  0  0  0  0  0
   17.4930   62.4330   32.7420 C   0  0  0  0  0  0  0  0  0  0  0  0
   17.0620   61.0050   32.2720 C   0  0  0  0  0  0  0  0  0  0  0  0
   15.8330   60.7150   32.3320 O   0  0  0  0  0  0  0  0  0  0  0  0
   18.0690   60.2620   31.8870 O   0  0  0  0  0  0  0  0  0  0  0  0
   19.3420   60.3570   32.7160 C   0  0  0  0  0  0  0  0  0  0  0  0
   18.3990   64.2810   31.4430 C   0  0  0  0  0  0  0  0  0  0  0  0
   19.5130   64.2830   32.4910 C   0  0  0  0  0  0  0  0  0  0  0  0
   20.8440   63.7240   31.9650 C   0  0  0  0  0  0  0  0  0  0  0  0
   21.7930   63.4030   33.1070 C   0  0  0  0  0  0  0  0  0  0  0  0
   22.8260   64.5080   33.2030 C   0  0  0  0  0  0  0  0  0  0  0  0
   21.0780   63.2680   34.4610 C   0  0  0  0  0  0  0  0  0  0  0  0
   22.5050   62.1500   32.8370 O   0  0  0  0  0  0  0  0  0  0  0  0
   23.1770   62.3520   32.2350 H   0  0  0  0  0  0  0  0  0  0  0  0
  1 24  1  6  0  0  0
  1  2  1  0  0  0  0
  2 19  1  6  0  0  0
  2  3  1  0  0  0  0
  3 11  2  0  0  0  0
  4  5  2  0  0  0  0
  4  3  1  0  0  0  0
  5  9  1  0  0  0  0
  6  7  1  0  0  0  0
  6  5  1  0  0  0  0
  7  8  1  0  0  0  0
  8  9  1  0  0  0  0
  9 10  2  0  0  0  0
 11 10  1  0  0  0  0
 11 12  1  0  0  0  0
 13 12  1  0  0  0  0
 14 19  1  6  0  0  0
 14 13  1  0  0  0  0
 15 14  1  0  0  0  0
 16 17  1  0  0  0  0
 16 14  1  0  0  0  0
 18 17  1  0  0  0  0
 19 20  1  6  0  0  0
 19 18  1  0  0  0  0
 21 22  1  6  0  0  0
 21 20  1  0  0  0  0
 21  1  1  0  0  0  0
 23 22  1  0  0  0  0
 24 25  1  0  0  0  0
 25 26  2  0  0  0  0
 27 35  1  6  0  0  0
 27 25  1  0  0  0  0
 27 30  1  0  0  0  0
 28 29  1  0  0  0  0
 28 27  1  0  0  0  0
 31 32  2  0  0  0  0
 31 30  1  0  0  0  0
 33 31  1  0  0  0  0
 33 34  1  0  0  0  0
 35 36  1  0  0  0  0
 37 36  1  0  0  0  0
 37 38  1  0  0  0  0
 38 39  1  0  0  0  0
 38 40  1  0  0  0  0
 41 38  1  0  0  0  0
 42 41  1  0  0  0  0
M  END
>  <minimizedAffinity>
-6.72732544

$$$$

 OpenBabel12271915173D

 42 46  0  0  1  0  0  0  0  0999 V2000
   14.1060   59.9540   33.5610 C   0  0  1  0  0  0  0  0  0  0  0  0
   13.7550   60.7910   34.8970 C   0  0  1  0  0  0  0  0  0  0  0  0
   13.1050   62.2020   34.7980 C   0  0  0  0  0  0  0  0  0  0  0  0
   12.8620   62.7790   33.5580 C   0  0  0  0  0  0  0  0  0  0  0  0
   12.2610   64.0110   33.4890 C   0  0  0  0  0  0  0  0  0  0  0  0
   11.9750   64.6830   32.3460 O   0  0  0  0  0  0  0  0  0  0  0  0
   11.0810   65.7350   32.8470 C   0  0  0  0  0  0  0  0  0  0  0  0
   11.3130   65.8750   34.3020 O   0  0  0  0  0  0  0  0  0  0  0  0
   11.8890   64.6770   34.5900 C   0  0  0  0  0  0  0  0  0  0  0  0
   12.0980   64.1600   35.8330 C   0  0  0  0  0  0  0  0  0  0  0  0
   12.7390   62.8570   35.9580 C   0  0  0  0  0  0  0  0  0  0  0  0
   12.8290   62.4160   37.3880 C   0  0  0  0  0  0  0  0  0  0  0  0
   12.8030   60.9960   37.5520 C   0  0  0  0  0  0  0  0  0  0  0  0
   11.8540   60.3770   36.5080 N   0  0  2  0  0  0  0  0  0  0  0  0
   11.2200   61.1570   36.1030 H   0  0  0  0  0  0  0  0  0  0  0  0
   11.1860   59.2300   37.0270 C   0  0  0  0  0  0  0  0  0  0  0  0
   12.3070   58.2020   37.0770 C   0  0  0  0  0  0  0  0  0  0  0  0
   13.3060   58.5770   36.0130 C   0  0  0  0  0  0  0  0  0  0  0  0
   12.7010   59.8500   35.3540 C   0  0  2  0  0  0  0  0  0  0  0  0
   11.9210   59.4810   34.1810 C   0  0  0  0  0  0  0  0  0  0  0  0
   12.6940   59.5940   33.1160 C   0  0  2  0  0  0  0  0  0  0  0  0
   12.4300   59.3920   31.8030 O   0  0  0  0  0  0  0  0  0  0  0  0
   11.3930   58.3690   31.4980 C   0  0  0  0  0  0  0  0  0  0  0  0
   14.9880   60.6640   32.5850 O   0  0  0  0  0  0  0  0  0  0  0  0
   16.2080   60.0920   32.6520 C   0  0  0  0  0  0  0  0  0  0  0  0
   16.5410   58.9790   32.9360 O   0  0  0  0  0  0  0  0  0  0  0  0
   17.3520   61.1510   32.3880 C   0  0  2  0  0  0  0  0  0  0  0  0
   17.4060   61.9840   33.6510 O   0  0  0  0  0  0  0  0  0  0  0  0
   16.6290   62.5420   33.6450 H   0  0  0  0  0  0  0  0  0  0  0  0
   17.0830   62.1640   31.3410 C   0  0  0  0  0  0  0  0  0  0  0  0
   17.0620   63.6080   31.9420 C   0  0  0  0  0  0  0  0  0  0  0  0
   18.1570   64.2350   31.9980 O   0  0  0  0  0  0  0  0  0  0  0  0
   15.8730   63.9820   32.3460 O   0  0  0  0  0  0  0  0  0  0  0  0
   15.3830   65.3380   31.8560 C   0  0  0  0  0  0  0  0  0  0  0  0
   18.7370   60.5660   32.1340 C   0  0  0  0  0  0  0  0  0  0  0  0
   19.8670   60.9530   33.0900 C   0  0  0  0  0  0  0  0  0  0  0  0
   20.9300   61.8530   32.4440 C   0  0  0  0  0  0  0  0  0  0  0  0
   21.2090   63.0750   33.3030 C   0  0  0  0  0  0  0  0  0  0  0  0
   22.3140   62.7340   34.2840 C   0  0  0  0  0  0  0  0  0  0  0  0
   21.6310   64.3030   32.4800 C   0  0  0  0  0  0  0  0  0  0  0  0
   20.0170   63.4300   34.0800 O   0  0  0  0  0  0  0  0  0  0  0  0
   19.9820   62.8430   34.7940 H   0  0  0  0  0  0  0  0  0  0  0  0
  1 24  1  6  0  0  0
  1  2  1  0  0  0  0
  2 19  1  1  0  0  0
  3  2  1  0  0  0  0
  3 11  2  0  0  0  0
  4  3  1  0  0  0  0
  5  4  2  0  0  0  0
  5  9  1  0  0  0  0
  6  7  1  0  0  0  0
  6  5  1  0  0  0  0
  7  8  1  0  0  0  0
  8  9  1  0  0  0  0
  9 10  2  0  0  0  0
 10 11  1  0  0  0  0
 11 12  1  0  0  0  0
 12 13  1  0  0  0  0
 14 19  1  6  0  0  0
 14 16  1  0  0  0  0
 14 13  1  0  0  0  0
 15 14  1  0  0  0  0
 16 17  1  0  0  0  0
 18 17  1  0  0  0  0
 19 20  1  6  0  0  0
 19 18  1  0  0  0  0
 21 22  1  1  0  0  0
 21  1  1  0  0  0  0
 21 20  1  0  0  0  0
 23 22  1  0  0  0  0
 24 25  1  0  0  0  0
 25 26  2  0  0  0  0
 27 30  1  6  0  0  0
 27 25  1  0  0  0  0
 27 28  1  0  0  0  0
 29 28  1  0  0  0  0
 30 31  1  0  0  0  0
 31 32  2  0  0  0  0
 31 33  1  0  0  0  0
 34 33  1  0  0  0  0
 35 27  1  0  0  0  0
 35 36  1  0  0  0  0
 37 36  1  0  0  0  0
 37 38  1  0  0  0  0
 38 41  1  0  0  0  0
 38 39  1  0  0  0  0
 40 38  1  0  0  0  0
 41 42  1  0  0  0  0
M  END
>  <minimizedAffinity>
-6.54576731

$$$$

 OpenBabel12271915173D

 42 46  0  0  1  0  0  0  0  0999 V2000
   15.1950   68.2760   31.5170 C   0  0  1  0  0  0  0  0  0  0  0  0
   15.4690   68.9450   32.9610 C   0  0  1  0  0  0  0  0  0  0  0  0
   16.2770   70.2700   33.0780 C   0  0  0  0  0  0  0  0  0  0  0  0
   16.8130   70.8700   31.9450 C   0  0  0  0  0  0  0  0  0  0  0  0
   17.4960   72.0540   32.0630 C   0  0  0  0  0  0  0  0  0  0  0  0
   18.0700   72.7350   31.0400 O   0  0  0  0  0  0  0  0  0  0  0  0
   18.3520   74.0280   31.6770 C   0  0  0  0  0  0  0  0  0  0  0  0
   18.3620   73.8190   33.1430 O   0  0  0  0  0  0  0  0  0  0  0  0
   17.6570   72.6610   33.2450 C   0  0  0  0  0  0  0  0  0  0  0  0
   17.1510   72.1230   34.3910 C   0  0  0  0  0  0  0  0  0  0  0  0
   16.4230   70.8620   34.3180 C   0  0  0  0  0  0  0  0  0  0  0  0
   15.8830   70.4530   35.6550 C   0  0  0  0  0  0  0  0  0  0  0  0
   14.6830   69.6810   35.5760 C   0  0  0  0  0  0  0  0  0  0  0  0
   13.8190   70.1930   34.4090 N   0  0  2  0  0  0  0  0  0  0  0  0
   14.1690   71.1770   34.1180 H   0  0  0  0  0  0  0  0  0  0  0  0
   12.4280   70.0830   34.7020 C   0  0  0  0  0  0  0  0  0  0  0  0
   12.2030   68.5800   34.6180 C   0  0  0  0  0  0  0  0  0  0  0  0
   13.2340   68.0250   33.6710 C   0  0  0  0  0  0  0  0  0  0  0  0
   14.0430   69.2720   33.2140 C   0  0  2  0  0  0  0  0  0  0  0  0
   13.4980   69.7920   31.9680 C   0  0  0  0  0  0  0  0  0  0  0  0
   14.1890   69.2790   30.9660 C   0  0  2  0  0  0  0  0  0  0  0  0
   14.0880   69.4700   29.6300 O   0  0  0  0  0  0  0  0  0  0  0  0
   13.3370   68.4290   28.8780 C   0  0  0  0  0  0  0  0  0  0  0  0
   16.4200   67.9960   30.7080 O   0  0  0  0  0  0  0  0  0  0  0  0
   16.7490   66.7030   30.9060 C   0  0  0  0  0  0  0  0  0  0  0  0
   16.0800   65.7120   30.9090 O   0  0  0  0  0  0  0  0  0  0  0  0
   18.2780   66.5530   31.2830 C   0  0  2  0  0  0  0  0  0  0  0  0
   18.3700   67.0280   32.7170 O   0  0  0  0  0  0  0  0  0  0  0  0
   18.2750   67.9790   32.6980 H   0  0  0  0  0  0  0  0  0  0  0  0
   19.2210   67.4540   30.5800 C   0  0  0  0  0  0  0  0  0  0  0  0
   20.2370   68.1000   31.5780 C   0  0  0  0  0  0  0  0  0  0  0  0
   19.9070   69.1880   32.1280 O   0  0  0  0  0  0  0  0  0  0  0  0
   21.3470   67.4150   31.7010 O   0  0  0  0  0  0  0  0  0  0  0  0
   22.6300   68.2200   31.8610 C   0  0  0  0  0  0  0  0  0  0  0  0
   18.8330   65.1350   31.2060 C   0  0  0  0  0  0  0  0  0  0  0  0
   19.3170   64.4810   32.5020 C   0  0  0  0  0  0  0  0  0  0  0  0
   20.7760   64.0060   32.4360 C   0  0  0  0  0  0  0  0  0  0  0  0
   21.1280   63.1490   33.6400 C   0  0  0  0  0  0  0  0  0  0  0  0
   22.5310   63.5040   34.0920 C   0  0  0  0  0  0  0  0  0  0  0  0
   20.1580   63.3410   34.8170 C   0  0  0  0  0  0  0  0  0  0  0  0
   21.1260   61.7300   33.2700 O   0  0  0  0  0  0  0  0  0  0  0  0
   21.9220   61.5700   32.8280 H   0  0  0  0  0  0  0  0  0  0  0  0
  1 24  1  6  0  0  0
  1  2  1  0  0  0  0
  2  3  1  0  0  0  0
  2 19  1  6  0  0  0
  3 11  2  0  0  0  0
  4  5  2  0  0  0  0
  4  3  1  0  0  0  0
  5  9  1  0  0  0  0
  6  7  1  0  0  0  0
  6  5  1  0  0  0  0
  7  8  1  0  0  0  0
  8  9  1  0  0  0  0
  9 10  2  0  0  0  0
 11 10  1  0  0  0  0
 11 12  1  0  0  0  0
 13 12  1  0  0  0  0
 14 19  1  6  0  0  0
 14 16  1  0  0  0  0
 14 13  1  0  0  0  0
 15 14  1  0  0  0  0
 17 16  1  0  0  0  0
 18 17  1  0  0  0  0
 19 20  1  6  0  0  0
 19 18  1  0  0  0  0
 21 22  1  6  0  0  0
 21  1  1  0  0  0  0
 21 20  1  0  0  0  0
 23 22  1  0  0  0  0
 24 25  1  0  0  0  0
 25 26  2  0  0  0  0
 25 27  1  0  0  0  0
 27 30  1  6  0  0  0
 27 28  1  0  0  0  0
 29 28  1  0  0  0  0
 30 31  1  0  0  0  0
 31 33  1  0  0  0  0
 31 32  2  0  0  0  0
 33 34  1  0  0  0  0
 35 27  1  0  0  0  0
 35 36  1  0  0  0  0
 37 36  1  0  0  0  0
 37 38  1  0  0  0  0
 38 39  1  0  0  0  0
 38 40  1  0  0  0  0
 41 38  1  0  0  0  0
 42 41  1  0  0  0  0
M  END
>  <minimizedAffinity>
-6.54289007

$$$$

 OpenBabel12271915173D

 42 46  0  0  1  0  0  0  0  0999 V2000
   15.0290   70.3300   30.3700 C   0  0  1  0  0  0  0  0  0  0  0  0
   14.3760   69.1690   29.4560 C   0  0  1  0  0  0  0  0  0  0  0  0
   13.7390   67.9100   30.1150 C   0  0  0  0  0  0  0  0  0  0  0  0
   13.7680   67.7470   31.4940 C   0  0  0  0  0  0  0  0  0  0  0  0
   13.1750   66.6460   32.0590 C   0  0  0  0  0  0  0  0  0  0  0  0
   13.1380   66.3680   33.3860 O   0  0  0  0  0  0  0  0  0  0  0  0
   12.1370   65.2950   33.4280 C   0  0  0  0  0  0  0  0  0  0  0  0
   12.0380   64.7130   32.0700 O   0  0  0  0  0  0  0  0  0  0  0  0
   12.5560   65.7190   31.3170 C   0  0  0  0  0  0  0  0  0  0  0  0
   12.4930   65.8260   29.9600 C   0  0  0  0  0  0  0  0  0  0  0  0
   13.1130   66.9760   29.3120 C   0  0  0  0  0  0  0  0  0  0  0  0
   12.8910   66.9650   27.8300 C   0  0  0  0  0  0  0  0  0  0  0  0
   12.8540   68.2710   27.2480 C   0  0  0  0  0  0  0  0  0  0  0  0
   12.1720   69.2480   28.2240 N   0  0  2  0  0  0  0  0  0  0  0  0
   11.6300   68.6790   28.9700 H   0  0  0  0  0  0  0  0  0  0  0  0
   11.4260   70.2440   27.5280 C   0  0  0  0  0  0  0  0  0  0  0  0
   12.5260   71.1120   26.9360 C   0  0  0  0  0  0  0  0  0  0  0  0
   13.7290   70.9840   27.8330 C   0  0  0  0  0  0  0  0  0  0  0  0
   13.2640   70.0190   28.9600 C   0  0  2  0  0  0  0  0  0  0  0  0
   12.7700   70.7820   30.0980 C   0  0  0  0  0  0  0  0  0  0  0  0
   13.7580   70.9230   30.9640 C   0  0  2  0  0  0  0  0  0  0  0  0
   13.7960   71.5260   32.1760 O   0  0  0  0  0  0  0  0  0  0  0  0
   12.8920   70.9580   33.2130 C   0  0  0  0  0  0  0  0  0  0  0  0
   16.0930   69.8680   31.3120 O   0  0  0  0  0  0  0  0  0  0  0  0
   17.2810   70.0280   30.6910 C   0  0  0  0  0  0  0  0  0  0  0  0
   17.5660   70.5750   29.6660 O   0  0  0  0  0  0  0  0  0  0  0  0
   18.4330   69.2590   31.4540 C   0  0  2  0  0  0  0  0  0  0  0  0
   19.2510   68.6060   30.3610 O   0  0  0  0  0  0  0  0  0  0  0  0
   18.7300   67.8770   30.0260 H   0  0  0  0  0  0  0  0  0  0  0  0
   18.0170   68.1050   32.2840 C   0  0  0  0  0  0  0  0  0  0  0  0
   18.0650   66.7730   31.4650 C   0  0  0  0  0  0  0  0  0  0  0  0
   19.0930   66.0480   31.5850 O   0  0  0  0  0  0  0  0  0  0  0  0
   17.0060   66.5880   30.7170 O   0  0  0  0  0  0  0  0  0  0  0  0
   16.4260   65.1800   30.6950 C   0  0  0  0  0  0  0  0  0  0  0  0
   19.3580   70.1350   32.2930 C   0  0  0  0  0  0  0  0  0  0  0  0
   18.7300   71.0040   33.3850 C   0  0  0  0  0  0  0  0  0  0  0  0
   18.6630   72.4930   33.0150 C   0  0  0  0  0  0  0  0  0  0  0  0
   17.2280   72.9900   33.0020 C   0  0  0  0  0  0  0  0  0  0  0  0
   17.0940   74.1070   34.0190 C   0  0  0  0  0  0  0  0  0  0  0  0
   16.7860   73.5110   31.6250 C   0  0  0  0  0  0  0  0  0  0  0  0
   16.3150   71.9140   33.4010 O   0  0  0  0  0  0  0  0  0  0  0  0
   16.3650   71.8520   34.3220 H   0  0  0  0  0  0  0  0  0  0  0  0
  1 21  1  0  0  0  0
  1 24  1  1  0  0  0
  2 19  1  1  0  0  0
  2  3  1  0  0  0  0
  2  1  1  0  0  0  0
  3  4  2  0  0  0  0
  4  5  1  0  0  0  0
  5  6  1  0  0  0  0
  6  7  1  0  0  0  0
  8  7  1  0  0  0  0
  9  5  2  0  0  0  0
  9  8  1  0  0  0  0
 10  9  1  0  0  0  0
 11 10  2  0  0  0  0
 11  3  1  0  0  0  0
 12 11  1  0  0  0  0
 13 12  1  0  0  0  0
 13 14  1  0  0  0  0
 14 19  1  1  0  0  0
 14 15  1  0  0  0  0
 16 14  1  0  0  0  0
 17 16  1  0  0  0  0
 17 18  1  0  0  0  0
 19 18  1  6  0  0  0
 19 20  1  0  0  0  0
 20 21  1  0  0  0  0
 21 22  1  6  0  0  0
 22 23  1  0  0  0  0
 25 24  1  0  0  0  0
 25 27  1  0  0  0  0
 26 25  2  0  0  0  0
 27 30  1  1  0  0  0
 27 35  1  0  0  0  0
 28 27  1  0  0  0  0
 29 28  1  0  0  0  0
 31 32  2  0  0  0  0
 31 30  1  0  0  0  0
 33 31  1  0  0  0  0
 34 33  1  0  0  0  0
 35 36  1  0  0  0  0
 37 36  1  0  0  0  0
 38 37  1  0  0  0  0
 38 41  1  0  0  0  0
 38 39  1  0  0  0  0
 40 38  1  0  0  0  0
 41 42  1  0  0  0  0
M  END
>  <minimizedAffinity>
-6.54276562

$$$$

 OpenBabel12271915173D

 42 46  0  0  1  0  0  0  0  0999 V2000
   15.0090   70.5120   30.2780 C   0  0  1  0  0  0  0  0  0  0  0  0
   14.3530   69.3640   29.3490 C   0  0  1  0  0  0  0  0  0  0  0  0
   13.7650   68.0720   29.9870 C   0  0  0  0  0  0  0  0  0  0  0  0
   13.8380   67.8690   31.3590 C   0  0  0  0  0  0  0  0  0  0  0  0
   13.2870   66.7380   31.9080 C   0  0  0  0  0  0  0  0  0  0  0  0
   13.2960   66.4200   33.2260 O   0  0  0  0  0  0  0  0  0  0  0  0
   12.3200   65.3230   33.2640 C   0  0  0  0  0  0  0  0  0  0  0  0
   12.1930   64.7800   31.8930 O   0  0  0  0  0  0  0  0  0  0  0  0
   12.6660   65.8200   31.1560 C   0  0  0  0  0  0  0  0  0  0  0  0
   12.5600   65.9660   29.8050 C   0  0  0  0  0  0  0  0  0  0  0  0
   13.1360   67.1480   29.1750 C   0  0  0  0  0  0  0  0  0  0  0  0
   12.8700   67.1770   27.7000 C   0  0  0  0  0  0  0  0  0  0  0  0
   12.7870   68.4980   27.1600 C   0  0  0  0  0  0  0  0  0  0  0  0
   12.1130   69.4300   28.1840 N   0  0  2  0  0  0  0  0  0  0  0  0
   11.6060   68.8270   28.9290 H   0  0  0  0  0  0  0  0  0  0  0  0
   11.3250   70.4290   27.5410 C   0  0  0  0  0  0  0  0  0  0  0  0
   12.3870   71.3400   26.9450 C   0  0  0  0  0  0  0  0  0  0  0  0
   13.6190   71.2120   27.8020 C   0  0  0  0  0  0  0  0  0  0  0  0
   13.2090   70.2030   28.9120 C   0  0  2  0  0  0  0  0  0  0  0  0
   12.7330   70.9200   30.0870 C   0  0  0  0  0  0  0  0  0  0  0  0
   13.7430   71.0580   30.9270 C   0  0  2  0  0  0  0  0  0  0  0  0
   13.8030   71.6250   32.1550 O   0  0  0  0  0  0  0  0  0  0  0  0
   13.0320   70.9390   33.2270 C   0  0  0  0  0  0  0  0  0  0  0  0
   16.1100   70.0470   31.1740 O   0  0  0  0  0  0  0  0  0  0  0  0
   17.2410   70.6690   30.7820 C   0  0  0  0  0  0  0  0  0  0  0  0
   17.8190   70.6670   29.7350 O   0  0  0  0  0  0  0  0  0  0  0  0
   17.9160   71.4420   31.9860 C   0  0  2  0  0  0  0  0  0  0  0  0
   16.7890   72.2260   32.6230 O   0  0  0  0  0  0  0  0  0  0  0  0
   16.5860   72.9470   32.0280 H   0  0  0  0  0  0  0  0  0  0  0  0
   18.8880   72.5000   31.6270 C   0  0  0  0  0  0  0  0  0  0  0  0
   18.2110   73.9100   31.6200 C   0  0  0  0  0  0  0  0  0  0  0  0
   17.5480   74.2360   30.5950 O   0  0  0  0  0  0  0  0  0  0  0  0
   18.4490   74.6030   32.7060 O   0  0  0  0  0  0  0  0  0  0  0  0
   19.2770   75.8710   32.5370 C   0  0  0  0  0  0  0  0  0  0  0  0
   18.5520   70.5570   33.0530 C   0  0  0  0  0  0  0  0  0  0  0  0
   19.3960   69.3680   32.5910 C   0  0  0  0  0  0  0  0  0  0  0  0
   18.6100   68.0500   32.5300 C   0  0  0  0  0  0  0  0  0  0  0  0
   18.8690   67.3180   31.2240 C   0  0  0  0  0  0  0  0  0  0  0  0
   19.6410   66.0480   31.5270 C   0  0  0  0  0  0  0  0  0  0  0  0
   17.5770   66.9520   30.4760 C   0  0  0  0  0  0  0  0  0  0  0  0
   19.6970   68.1410   30.3370 O   0  0  0  0  0  0  0  0  0  0  0  0
   20.5670   68.0650   30.6400 H   0  0  0  0  0  0  0  0  0  0  0  0
  1 21  1  0  0  0  0
  1 24  1  1  0  0  0
  2 19  1  1  0  0  0
  2  3  1  0  0  0  0
  2  1  1  0  0  0  0
  3  4  2  0  0  0  0
  4  5  1  0  0  0  0
  5  6  1  0  0  0  0
  6  7  1  0  0  0  0
  8  7  1  0  0  0  0
  9  8  1  0  0  0  0
  9  5  2  0  0  0  0
 10  9  1  0  0  0  0
 11 10  2  0  0  0  0
 11  3  1  0  0  0  0
 12 11  1  0  0  0  0
 13 12  1  0  0  0  0
 13 14  1  0  0  0  0
 14 19  1  1  0  0  0
 14 15  1  0  0  0  0
 16 14  1  0  0  0  0
 17 16  1  0  0  0  0
 17 18  1  0  0  0  0
 19 18  1  6  0  0  0
 19 20  1  0  0  0  0
 20 21  1  0  0  0  0
 21 22  1  6  0  0  0
 22 23  1  0  0  0  0
 25 24  1  0  0  0  0
 25 27  1  0  0  0  0
 26 25  2  0  0  0  0
 27 30  1  6  0  0  0
 27 28  1  0  0  0  0
 27 35  1  0  0  0  0
 29 28  1  0  0  0  0
 31 30  1  0  0  0  0
 31 33  1  0  0  0  0
 32 31  2  0  0  0  0
 34 33  1  0  0  0  0
 36 35  1  0  0  0  0
 37 36  1  0  0  0  0
 38 39  1  0  0  0  0
 38 37  1  0  0  0  0
 40 38  1  0  0  0  0
 41 42  1  0  0  0  0
 41 38  1  0  0  0  0
M  END
>  <minimizedAffinity>
-6.42513466

$$$$

 OpenBabel12271915173D

 42 46  0  0  1  0  0  0  0  0999 V2000
   16.8640   62.1580   33.1840 C   0  0  1  0  0  0  0  0  0  0  0  0
   15.4230   61.9340   33.8770 C   0  0  1  0  0  0  0  0  0  0  0  0
   14.3520   63.0640   33.8580 C   0  0  0  0  0  0  0  0  0  0  0  0
   14.6400   64.2960   33.2860 C   0  0  0  0  0  0  0  0  0  0  0  0
   13.6740   65.2700   33.2500 C   0  0  0  0  0  0  0  0  0  0  0  0
   13.8290   66.5120   32.7270 O   0  0  0  0  0  0  0  0  0  0  0  0
   12.4370   66.9750   32.6690 C   0  0  0  0  0  0  0  0  0  0  0  0
   11.6440   66.1540   33.6130 O   0  0  0  0  0  0  0  0  0  0  0  0
   12.4470   65.0660   33.7470 C   0  0  0  0  0  0  0  0  0  0  0  0
   12.1050   63.8760   34.3180 C   0  0  0  0  0  0  0  0  0  0  0  0
   13.1000   62.8120   34.3850 C   0  0  0  0  0  0  0  0  0  0  0  0
   12.5340   61.5590   34.9820 C   0  0  0  0  0  0  0  0  0  0  0  0
   13.1530   60.3650   34.4980 C   0  0  0  0  0  0  0  0  0  0  0  0
   13.5060   60.5370   33.0080 N   0  0  2  0  0  0  0  0  0  0  0  0
   12.9520   61.3800   32.6110 H   0  0  0  0  0  0  0  0  0  0  0  0
   13.3770   59.3090   32.2970 C   0  0  0  0  0  0  0  0  0  0  0  0
   14.5710   58.5160   32.8090 C   0  0  0  0  0  0  0  0  0  0  0  0
   15.6250   59.5100   33.2210 C   0  0  0  0  0  0  0  0  0  0  0  0
   14.9860   60.8940   32.9120 C   0  0  2  0  0  0  0  0  0  0  0  0
   15.3900   61.3460   31.5870 C   0  0  0  0  0  0  0  0  0  0  0  0
   16.4420   62.1340   31.7200 C   0  0  2  0  0  0  0  0  0  0  0  0
   17.1610   62.8150   30.7970 O   0  0  0  0  0  0  0  0  0  0  0  0
   16.7850   64.2410   30.6010 C   0  0  0  0  0  0  0  0  0  0  0  0
   17.6220   63.3490   33.6740 O   0  0  0  0  0  0  0  0  0  0  0  0
   18.8200   62.9130   34.1150 C   0  0  0  0  0  0  0  0  0  0  0  0
   19.1210   62.2940   35.0930 O   0  0  0  0  0  0  0  0  0  0  0  0
   19.9930   63.4200   33.1820 C   0  0  2  0  0  0  0  0  0  0  0  0
   19.3930   64.5650   32.3950 O   0  0  0  0  0  0  0  0  0  0  0  0
   18.7980   64.1760   31.7550 H   0  0  0  0  0  0  0  0  0  0  0  0
   20.4350   62.4890   32.1170 C   0  0  0  0  0  0  0  0  0  0  0  0
   20.4330   61.0090   32.6230 C   0  0  0  0  0  0  0  0  0  0  0  0
   21.3820   60.6440   33.3720 O   0  0  0  0  0  0  0  0  0  0  0  0
   19.4230   60.3090   32.1680 O   0  0  0  0  0  0  0  0  0  0  0  0
   19.1720   58.9640   32.8350 C   0  0  0  0  0  0  0  0  0  0  0  0
   21.2320   63.9290   33.9100 C   0  0  0  0  0  0  0  0  0  0  0  0
   22.5010   64.1680   33.0890 C   0  0  0  0  0  0  0  0  0  0  0  0
   23.7840   64.1480   33.9320 C   0  0  0  0  0  0  0  0  0  0  0  0
   24.6440   62.9430   33.5920 C   0  0  0  0  0  0  0  0  0  0  0  0
   25.8520   63.4180   32.8060 C   0  0  0  0  0  0  0  0  0  0  0  0
   25.1250   62.1790   34.8360 C   0  0  0  0  0  0  0  0  0  0  0  0
   23.8980   62.0110   32.7400 O   0  0  0  0  0  0  0  0  0  0  0  0
   23.9160   62.3610   31.8850 H   0  0  0  0  0  0  0  0  0  0  0  0
  1 24  1  1  0  0  0
  1  2  1  0  0  0  0
  2 19  1  6  0  0  0
  3  2  1  0  0  0  0
  3 11  2  0  0  0  0
  4  3  1  0  0  0  0
  5  4  2  0  0  0  0
  5  9  1  0  0  0  0
  6  5  1  0  0  0  0
  7  6  1  0  0  0  0
  7  8  1  0  0  0  0
  8  9  1  0  0  0  0
  9 10  2  0  0  0  0
 10 11  1  0  0  0  0
 11 12  1  0  0  0  0
 13 12  1  0  0  0  0
 14 19  1  6  0  0  0
 14 13  1  0  0  0  0
 15 14  1  0  0  0  0
 16 17  1  0  0  0  0
 16 14  1  0  0  0  0
 17 18  1  0  0  0  0
 19 20  1  6  0  0  0
 19 18  1  0  0  0  0
 20 21  1  0  0  0  0
 21 22  1  6  0  0  0
 21  1  1  0  0  0  0
 23 22  1  0  0  0  0
 24 25  1  0  0  0  0
 25 26  2  0  0  0  0
 27 30  1  6  0  0  0
 27 35  1  0  0  0  0
 27 25  1  0  0  0  0
 28 27  1  0  0  0  0
 29 28  1  0  0  0  0
 30 31  1  0  0  0  0
 31 32  2  0  0  0  0
 33 31  1  0  0  0  0
 33 34  1  0  0  0  0
 36 35  1  0  0  0  0
 36 37  1  0  0  0  0
 38 37  1  0  0  0  0
 38 40  1  0  0  0  0
 39 38  1  0  0  0  0
 41 38  1  0  0  0  0
 42 41  1  0  0  0  0
M  END
>  <minimizedAffinity>
-6.36293268

$$$$
