
 OpenBabel12271915223D

 37 41  0  0  1  0  0  0  0  0999 V2000
   21.8530   64.9930   32.4470 C   0  0  2  0  0  0  0  0  0  0  0  0
   21.9420   63.8020   31.6090 O   0  0  0  0  0  0  0  0  0  0  0  0
   20.9270   62.8970   31.5910 C   0  0  0  0  0  0  0  0  0  0  0  0
   20.7340   62.2260   30.5990 O   0  0  0  0  0  0  0  0  0  0  0  0
   20.1130   62.8160   32.8090 C   0  0  1  0  0  0  0  0  0  0  0  0
   20.3230   63.5690   33.9220 C   0  0  0  0  0  0  0  0  0  0  0  0
   19.6610   63.5790   34.9540 O   0  0  0  0  0  0  0  0  0  0  0  0
   21.5350   64.5810   33.8610 C   0  0  0  0  0  0  0  0  0  0  0  0
   20.7400   65.8270   31.8450 C   0  0  0  0  0  0  0  0  0  0  0  0
   21.2170   67.2110   31.4140 C   0  0  0  0  0  0  0  0  0  0  0  0
   19.8850   67.8720   31.1540 C   0  0  0  0  0  0  0  0  0  0  0  0
   19.1260   67.5490   32.4330 C   0  0  0  0  0  0  0  0  0  0  0  0
   19.4730   66.0830   32.6590 C   0  0  0  0  0  0  0  0  0  0  0  0
   18.9310   61.8610   32.8920 C   0  0  0  0  0  0  0  0  0  0  0  0
   17.5770   62.5640   32.7610 C   0  0  0  0  0  0  0  0  0  0  0  0
   16.4330   62.2360   33.4400 N   0  0  0  0  0  0  0  0  0  0  0  0
   15.5230   63.1400   33.0090 C   0  0  0  0  0  0  0  0  0  0  0  0
   14.1810   63.3250   33.3450 N   0  0  0  0  0  0  0  0  0  0  0  0
   13.4970   64.2750   32.8120 C   0  0  0  0  0  0  0  0  0  0  0  0
   12.0260   64.5200   33.1450 C   0  0  0  0  0  0  0  0  0  0  0  0
   14.0950   65.1950   31.8200 C   0  0  0  0  0  0  0  0  0  0  0  0
   15.3790   65.0080   31.5110 C   0  0  0  0  0  0  0  0  0  0  0  0
   16.0570   65.8850   30.5180 C   0  0  0  0  0  0  0  0  0  0  0  0
   16.1060   63.9530   32.1230 N   0  0  0  0  0  0  0  0  0  0  0  0
   17.4080   63.6020   31.9680 N   0  0  0  0  0  0  0  0  0  0  0  0
   23.2590   65.6260   32.3480 C   0  0  0  0  0  0  0  0  0  0  0  0
   24.2170   65.4460   33.5200 C   0  0  0  0  0  0  0  0  0  0  0  0
   25.5650   61.9720   33.9880 C   0  0  0  0  0  0  0  0  0  0  0  0
   26.4010   61.8310   32.9430 N   0  0  0  0  0  0  0  0  0  0  0  0
   26.5290   62.8810   32.0660 C   0  0  0  0  0  0  0  0  0  0  0  0
   25.8530   64.0360   32.2230 C   0  0  0  0  0  0  0  0  0  0  0  0
   24.9870   64.1920   33.2990 C   0  0  0  0  0  0  0  0  0  0  0  0
   24.8670   63.1200   34.2020 C   0  0  0  0  0  0  0  0  0  0  0  0
   24.0080   60.8530   35.5100 C   0  0  0  0  0  0  0  0  0  0  0  0
   25.4310   60.8360   34.9810 C   0  0  0  0  0  0  0  0  0  0  0  0
   27.4720   62.7030   30.8840 C   0  0  0  0  0  0  0  0  0  0  0  0
   28.4050   61.5460   31.1480 C   0  0  0  0  0  0  0  0  0  0  0  0
  1 26  1  6  0  0  0
  1  8  1  0  0  0  0
  2  1  1  0  0  0  0
  3  2  1  0  0  0  0
  3  5  1  0  0  0  0
  4  3  2  0  0  0  0
  5 14  1  6  0  0  0
  5  6  1  0  0  0  0
  6  7  2  0  0  0  0
  8  6  1  0  0  0  0
  9  1  1  0  0  0  0
  9 13  1  0  0  0  0
 10  9  1  0  0  0  0
 11 10  1  0  0  0  0
 11 12  1  0  0  0  0
 12 13  1  0  0  0  0
 15 14  1  0  0  0  0
 15 16  2  0  0  0  0
 17 18  2  0  0  0  0
 17 16  2  0  0  0  0
 19 20  1  0  0  0  0
 19 18  2  0  0  0  0
 21 19  1  0  0  0  0
 22 21  2  0  0  0  0
 22 24  1  0  0  0  0
 23 22  1  0  0  0  0
 24 17  1  0  0  0  0
 25 24  1  0  0  0  0
 25 15  2  0  0  0  0
 26 27  1  0  0  0  0
 28 33  1  0  0  0  0
 28 35  1  0  0  0  0
 29 28  2  0  0  0  0
 30 31  1  0  0  0  0
 30 29  2  0  0  0  0
 31 32  2  0  0  0  0
 32 27  1  0  0  0  0
 32 33  1  0  0  0  0
 35 34  1  0  0  0  0
 36 37  1  0  0  0  0
 36 30  1  0  0  0  0
M  END
>  <minimizedAffinity>
-10.1229687

$$$$

 OpenBabel12271915223D

 37 41  0  0  1  0  0  0  0  0999 V2000
   21.8340   64.9920   32.4150 C   0  0  2  0  0  0  0  0  0  0  0  0
   21.9140   63.8040   31.5720 O   0  0  0  0  0  0  0  0  0  0  0  0
   20.8960   62.9030   31.5570 C   0  0  0  0  0  0  0  0  0  0  0  0
   20.6950   62.2360   30.5650 O   0  0  0  0  0  0  0  0  0  0  0  0
   20.0890   62.8200   32.7800 C   0  0  1  0  0  0  0  0  0  0  0  0
   20.3090   63.5680   33.8950 C   0  0  0  0  0  0  0  0  0  0  0  0
   19.6530   63.5770   34.9310 O   0  0  0  0  0  0  0  0  0  0  0  0
   21.5240   64.5760   33.8290 C   0  0  0  0  0  0  0  0  0  0  0  0
   20.7200   65.8320   31.8220 C   0  0  0  0  0  0  0  0  0  0  0  0
   21.2050   67.2050   31.3650 C   0  0  0  0  0  0  0  0  0  0  0  0
   19.8770   67.8780   31.1200 C   0  0  0  0  0  0  0  0  0  0  0  0
   19.1380   67.5810   32.4180 C   0  0  0  0  0  0  0  0  0  0  0  0
   19.4720   66.1140   32.6570 C   0  0  0  0  0  0  0  0  0  0  0  0
   18.9050   61.8680   32.8670 C   0  0  0  0  0  0  0  0  0  0  0  0
   17.5530   62.5750   32.7400 C   0  0  0  0  0  0  0  0  0  0  0  0
   16.4130   62.2580   33.4310 N   0  0  0  0  0  0  0  0  0  0  0  0
   15.5030   63.1610   33.0010 C   0  0  0  0  0  0  0  0  0  0  0  0
   14.1640   63.3540   33.3450 N   0  0  0  0  0  0  0  0  0  0  0  0
   13.4800   64.3020   32.8090 C   0  0  0  0  0  0  0  0  0  0  0  0
   12.0120   64.5560   33.1520 C   0  0  0  0  0  0  0  0  0  0  0  0
   14.0730   65.2110   31.8050 C   0  0  0  0  0  0  0  0  0  0  0  0
   15.3540   65.0170   31.4870 C   0  0  0  0  0  0  0  0  0  0  0  0
   16.0270   65.8820   30.4810 C   0  0  0  0  0  0  0  0  0  0  0  0
   16.0820   63.9650   32.1020 N   0  0  0  0  0  0  0  0  0  0  0  0
   17.3820   63.6060   31.9400 N   0  0  0  0  0  0  0  0  0  0  0  0
   23.2420   65.6210   32.3100 C   0  0  0  0  0  0  0  0  0  0  0  0
   24.1920   65.4690   33.4920 C   0  0  0  0  0  0  0  0  0  0  0  0
   26.5280   62.8950   32.0690 C   0  0  0  0  0  0  0  0  0  0  0  0
   26.3930   61.8630   32.9230 N   0  0  0  0  0  0  0  0  0  0  0  0
   25.5310   62.0040   33.9830 C   0  0  0  0  0  0  0  0  0  0  0  0
   24.8210   63.1310   34.1890 C   0  0  0  0  0  0  0  0  0  0  0  0
   24.9520   64.2030   33.3130 C   0  0  0  0  0  0  0  0  0  0  0  0
   25.8270   64.0510   32.2210 C   0  0  0  0  0  0  0  0  0  0  0  0
   28.3690   61.5700   31.1500 C   0  0  0  0  0  0  0  0  0  0  0  0
   27.4520   62.7480   30.8780 C   0  0  0  0  0  0  0  0  0  0  0  0
   25.3970   60.8320   34.9440 C   0  0  0  0  0  0  0  0  0  0  0  0
   24.0120   60.8210   35.5430 C   0  0  0  0  0  0  0  0  0  0  0  0
  1 26  1  6  0  0  0
  1  8  1  0  0  0  0
  2  1  1  0  0  0  0
  3  2  1  0  0  0  0
  3  5  1  0  0  0  0
  4  3  2  0  0  0  0
  5 14  1  6  0  0  0
  5  6  1  0  0  0  0
  6  7  2  0  0  0  0
  8  6  1  0  0  0  0
  9  1  1  0  0  0  0
  9 13  1  0  0  0  0
 10  9  1  0  0  0  0
 11 10  1  0  0  0  0
 11 12  1  0  0  0  0
 12 13  1  0  0  0  0
 15 14  1  0  0  0  0
 15 16  2  0  0  0  0
 17 18  2  0  0  0  0
 17 16  2  0  0  0  0
 19 20  1  0  0  0  0
 19 18  2  0  0  0  0
 21 19  1  0  0  0  0
 22 21  2  0  0  0  0
 22 24  1  0  0  0  0
 23 22  1  0  0  0  0
 24 17  1  0  0  0  0
 25 24  1  0  0  0  0
 25 15  2  0  0  0  0
 26 27  1  0  0  0  0
 28 33  1  0  0  0  0
 28 29  2  0  0  0  0
 29 30  2  0  0  0  0
 30 31  1  0  0  0  0
 30 36  1  0  0  0  0
 32 27  1  0  0  0  0
 32 31  2  0  0  0  0
 33 32  1  0  0  0  0
 35 34  1  0  0  0  0
 35 28  1  0  0  0  0
 36 37  1  0  0  0  0
M  END
>  <minimizedAffinity>
-10.0407372

$$$$

 OpenBabel12271915223D

 37 41  0  0  1  0  0  0  0  0999 V2000
   21.5060   64.0950   32.6890 C   0  0  2  0  0  0  0  0  0  0  0  0
   21.8050   63.1010   31.6640 O   0  0  0  0  0  0  0  0  0  0  0  0
   21.1890   61.8880   31.6830 C   0  0  0  0  0  0  0  0  0  0  0  0
   21.0180   61.2830   30.6460 O   0  0  0  0  0  0  0  0  0  0  0  0
   20.7550   61.4050   32.9980 C   0  0  1  0  0  0  0  0  0  0  0  0
   20.9420   62.0820   34.1630 C   0  0  0  0  0  0  0  0  0  0  0  0
   20.5730   61.7560   35.2860 O   0  0  0  0  0  0  0  0  0  0  0  0
   21.6830   63.4730   34.0490 C   0  0  0  0  0  0  0  0  0  0  0  0
   20.0680   64.5050   32.4440 C   0  0  0  0  0  0  0  0  0  0  0  0
   19.5430   64.0150   31.0970 C   0  0  0  0  0  0  0  0  0  0  0  0
   18.2580   64.8040   31.0200 C   0  0  0  0  0  0  0  0  0  0  0  0
   18.7430   66.2130   31.3280 C   0  0  0  0  0  0  0  0  0  0  0  0
   19.6930   65.9860   32.4980 C   0  0  0  0  0  0  0  0  0  0  0  0
   20.0280   60.0750   33.1370 C   0  0  0  0  0  0  0  0  0  0  0  0
   18.5120   60.1960   32.9540 C   0  0  0  0  0  0  0  0  0  0  0  0
   17.6380   59.1530   32.7900 N   0  0  0  0  0  0  0  0  0  0  0  0
   16.4280   59.7490   32.6910 C   0  0  0  0  0  0  0  0  0  0  0  0
   15.1500   59.2140   32.5240 N   0  0  0  0  0  0  0  0  0  0  0  0
   14.1200   59.9820   32.4680 C   0  0  0  0  0  0  0  0  0  0  0  0
   12.7000   59.4460   32.2860 C   0  0  0  0  0  0  0  0  0  0  0  0
   14.2460   61.4520   32.5670 C   0  0  0  0  0  0  0  0  0  0  0  0
   15.4730   61.9490   32.7300 C   0  0  0  0  0  0  0  0  0  0  0  0
   15.6890   63.4180   32.8320 C   0  0  0  0  0  0  0  0  0  0  0  0
   16.5870   61.0730   32.7920 N   0  0  0  0  0  0  0  0  0  0  0  0
   17.9020   61.3620   32.9690 N   0  0  0  0  0  0  0  0  0  0  0  0
   22.5450   65.2120   32.4410 C   0  0  0  0  0  0  0  0  0  0  0  0
   23.6980   65.3590   33.4280 C   0  0  0  0  0  0  0  0  0  0  0  0
   25.4620   62.0900   33.9830 C   0  0  0  0  0  0  0  0  0  0  0  0
   26.3140   62.0290   32.9430 N   0  0  0  0  0  0  0  0  0  0  0  0
   26.3160   63.0650   32.0420 C   0  0  0  0  0  0  0  0  0  0  0  0
   25.5020   64.1310   32.1690 C   0  0  0  0  0  0  0  0  0  0  0  0
   24.6170   64.2050   33.2390 C   0  0  0  0  0  0  0  0  0  0  0  0
   24.6260   63.1480   34.1670 C   0  0  0  0  0  0  0  0  0  0  0  0
   24.0530   60.8410   35.5470 C   0  0  0  0  0  0  0  0  0  0  0  0
   25.4640   60.9700   35.0030 C   0  0  0  0  0  0  0  0  0  0  0  0
   27.2800   62.9770   30.8670 C   0  0  0  0  0  0  0  0  0  0  0  0
   28.1970   61.7920   31.0490 C   0  0  0  0  0  0  0  0  0  0  0  0
  1 26  1  6  0  0  0
  1  8  1  0  0  0  0
  2  3  1  0  0  0  0
  2  1  1  0  0  0  0
  3  5  1  0  0  0  0
  4  3  2  0  0  0  0
  5 14  1  6  0  0  0
  5  6  1  0  0  0  0
  6  7  2  0  0  0  0
  8  6  1  0  0  0  0
  9 13  1  0  0  0  0
  9  1  1  0  0  0  0
 10  9  1  0  0  0  0
 11 10  1  0  0  0  0
 11 12  1  0  0  0  0
 12 13  1  0  0  0  0
 15 25  2  0  0  0  0
 15 14  1  0  0  0  0
 16 15  2  0  0  0  0
 17 16  2  0  0  0  0
 17 24  1  0  0  0  0
 18 17  2  0  0  0  0
 19 18  2  0  0  0  0
 19 21  1  0  0  0  0
 20 19  1  0  0  0  0
 21 22  2  0  0  0  0
 22 24  1  0  0  0  0
 22 23  1  0  0  0  0
 24 25  1  0  0  0  0
 26 27  1  0  0  0  0
 28 33  1  0  0  0  0
 28 35  1  0  0  0  0
 29 28  2  0  0  0  0
 30 31  1  0  0  0  0
 30 29  2  0  0  0  0
 31 32  2  0  0  0  0
 32 27  1  0  0  0  0
 32 33  1  0  0  0  0
 35 34  1  0  0  0  0
 36 37  1  0  0  0  0
 36 30  1  0  0  0  0
M  END
>  <minimizedAffinity>
-9.55773354

$$$$

 OpenBabel12271915223D

 37 41  0  0  1  0  0  0  0  0999 V2000
   21.5820   64.4610   32.6980 C   0  0  2  0  0  0  0  0  0  0  0  0
   21.6760   63.4690   31.6320 O   0  0  0  0  0  0  0  0  0  0  0  0
   20.8680   62.3760   31.6380 C   0  0  0  0  0  0  0  0  0  0  0  0
   20.5620   61.8460   30.5910 O   0  0  0  0  0  0  0  0  0  0  0  0
   20.4050   61.9210   32.9540 C   0  0  1  0  0  0  0  0  0  0  0  0
   20.7430   62.5150   34.1310 C   0  0  0  0  0  0  0  0  0  0  0  0
   20.3630   62.2130   35.2570 O   0  0  0  0  0  0  0  0  0  0  0  0
   21.7000   63.7680   34.0310 C   0  0  0  0  0  0  0  0  0  0  0  0
   20.2240   65.1110   32.5240 C   0  0  0  0  0  0  0  0  0  0  0  0
   19.4600   64.5550   31.3260 C   0  0  0  0  0  0  0  0  0  0  0  0
   18.3420   65.5660   31.2430 C   0  0  0  0  0  0  0  0  0  0  0  0
   19.1110   66.8790   31.2780 C   0  0  0  0  0  0  0  0  0  0  0  0
   20.1370   66.6300   32.3770 C   0  0  0  0  0  0  0  0  0  0  0  0
   19.4720   60.7260   33.0810 C   0  0  0  0  0  0  0  0  0  0  0  0
   17.9920   61.1180   33.1140 C   0  0  0  0  0  0  0  0  0  0  0  0
   17.5000   62.3820   33.3110 N   0  0  0  0  0  0  0  0  0  0  0  0
   16.1580   62.2290   33.2380 C   0  0  0  0  0  0  0  0  0  0  0  0
   15.1200   63.1560   33.3480 N   0  0  0  0  0  0  0  0  0  0  0  0
   13.8950   62.7830   33.2290 C   0  0  0  0  0  0  0  0  0  0  0  0
   12.7220   63.7580   33.3410 C   0  0  0  0  0  0  0  0  0  0  0  0
   13.5370   61.3700   32.9850 C   0  0  0  0  0  0  0  0  0  0  0  0
   14.5390   60.4960   32.8790 C   0  0  0  0  0  0  0  0  0  0  0  0
   14.2660   59.0530   32.6400 C   0  0  0  0  0  0  0  0  0  0  0  0
   15.8800   60.9410   33.0100 N   0  0  0  0  0  0  0  0  0  0  0  0
   17.0360   60.2340   32.9200 N   0  0  0  0  0  0  0  0  0  0  0  0
   22.7840   65.3990   32.4440 C   0  0  0  0  0  0  0  0  0  0  0  0
   23.8980   65.4450   33.4830 C   0  0  0  0  0  0  0  0  0  0  0  0
   26.3910   63.0050   32.0930 C   0  0  0  0  0  0  0  0  0  0  0  0
   26.3150   61.9750   32.9550 N   0  0  0  0  0  0  0  0  0  0  0  0
   25.4420   62.0720   34.0110 C   0  0  0  0  0  0  0  0  0  0  0  0
   24.6640   63.1560   34.2030 C   0  0  0  0  0  0  0  0  0  0  0  0
   24.7340   64.2260   33.3190 C   0  0  0  0  0  0  0  0  0  0  0  0
   25.6210   64.1180   32.2320 C   0  0  0  0  0  0  0  0  0  0  0  0
   28.2160   61.6930   31.1250 C   0  0  0  0  0  0  0  0  0  0  0  0
   27.3280   62.9040   30.9070 C   0  0  0  0  0  0  0  0  0  0  0  0
   25.3740   60.9030   34.9820 C   0  0  0  0  0  0  0  0  0  0  0  0
   23.9840   60.8020   35.5610 C   0  0  0  0  0  0  0  0  0  0  0  0
  1 26  1  6  0  0  0
  1  8  1  0  0  0  0
  2  3  1  0  0  0  0
  2  1  1  0  0  0  0
  3  5  1  0  0  0  0
  4  3  2  0  0  0  0
  5 14  1  6  0  0  0
  5  6  1  0  0  0  0
  6  7  2  0  0  0  0
  8  6  1  0  0  0  0
  9  1  1  0  0  0  0
 10  9  1  0  0  0  0
 11 12  1  0  0  0  0
 11 10  1  0  0  0  0
 12 13  1  0  0  0  0
 13  9  1  0  0  0  0
 14 15  1  0  0  0  0
 15 16  2  0  0  0  0
 17 16  2  0  0  0  0
 17 18  2  0  0  0  0
 19 20  1  0  0  0  0
 19 18  2  0  0  0  0
 21 19  1  0  0  0  0
 22 21  2  0  0  0  0
 22 24  1  0  0  0  0
 23 22  1  0  0  0  0
 24 17  1  0  0  0  0
 25 24  1  0  0  0  0
 25 15  2  0  0  0  0
 26 27  1  0  0  0  0
 28 33  1  0  0  0  0
 28 29  2  0  0  0  0
 29 30  2  0  0  0  0
 30 31  1  0  0  0  0
 30 36  1  0  0  0  0
 32 27  1  0  0  0  0
 32 31  2  0  0  0  0
 33 32  1  0  0  0  0
 35 34  1  0  0  0  0
 35 28  1  0  0  0  0
 36 37  1  0  0  0  0
M  END
>  <minimizedAffinity>
-9.21439552

$$$$

 OpenBabel12271915223D

 37 41  0  0  1  0  0  0  0  0999 V2000
   16.7400   62.1210   32.3960 C   0  0  2  0  0  0  0  0  0  0  0  0
   17.6520   61.6590   33.4370 O   0  0  0  0  0  0  0  0  0  0  0  0
   18.6080   62.4910   33.9310 C   0  0  0  0  0  0  0  0  0  0  0  0
   19.0060   62.3450   35.0670 O   0  0  0  0  0  0  0  0  0  0  0  0
   19.0830   63.5410   33.0220 C   0  0  1  0  0  0  0  0  0  0  0  0
   18.6370   63.7100   31.7480 C   0  0  0  0  0  0  0  0  0  0  0  0
   18.9610   64.5850   30.9520 O   0  0  0  0  0  0  0  0  0  0  0  0
   17.5400   62.6870   31.2520 C   0  0  0  0  0  0  0  0  0  0  0  0
   15.8800   63.1800   33.0560 C   0  0  0  0  0  0  0  0  0  0  0  0
   14.6390   62.5920   33.7230 C   0  0  0  0  0  0  0  0  0  0  0  0
   13.8740   63.8620   34.0050 C   0  0  0  0  0  0  0  0  0  0  0  0
   13.9140   64.5540   32.6500 C   0  0  0  0  0  0  0  0  0  0  0  0
   15.3610   64.3490   32.2190 C   0  0  0  0  0  0  0  0  0  0  0  0
   20.1290   64.5480   33.4770 C   0  0  0  0  0  0  0  0  0  0  0  0
   21.5660   64.0550   33.2780 C   0  0  0  0  0  0  0  0  0  0  0  0
   22.4090   64.4270   32.2640 N   0  0  0  0  0  0  0  0  0  0  0  0
   23.5540   63.7550   32.5230 C   0  0  0  0  0  0  0  0  0  0  0  0
   24.7780   63.7300   31.8530 N   0  0  0  0  0  0  0  0  0  0  0  0
   25.7520   63.0150   32.2930 C   0  0  0  0  0  0  0  0  0  0  0  0
   27.1110   62.9540   31.5970 C   0  0  0  0  0  0  0  0  0  0  0  0
   25.6130   62.1860   33.5100 C   0  0  0  0  0  0  0  0  0  0  0  0
   24.4400   62.2210   34.1420 C   0  0  0  0  0  0  0  0  0  0  0  0
   24.2130   61.4120   35.3700 C   0  0  0  0  0  0  0  0  0  0  0  0
   23.3870   63.0260   33.6320 N   0  0  0  0  0  0  0  0  0  0  0  0
   22.1350   63.2190   34.1210 N   0  0  0  0  0  0  0  0  0  0  0  0
   15.9790   60.8440   31.9730 C   0  0  0  0  0  0  0  0  0  0  0  0
   16.3270   59.5310   32.6650 C   0  0  0  0  0  0  0  0  0  0  0  0
   14.0550   56.5420   32.7430 C   0  0  0  0  0  0  0  0  0  0  0  0
   12.8320   57.0980   32.8320 N   0  0  0  0  0  0  0  0  0  0  0  0
   12.7410   58.4670   32.8710 C   0  0  0  0  0  0  0  0  0  0  0  0
   13.8280   59.2630   32.8190 C   0  0  0  0  0  0  0  0  0  0  0  0
   15.0950   58.7000   32.7270 C   0  0  0  0  0  0  0  0  0  0  0  0
   15.1850   57.2970   32.6750 C   0  0  0  0  0  0  0  0  0  0  0  0
   13.6170   54.5930   31.3290 C   0  0  0  0  0  0  0  0  0  0  0  0
   14.1740   55.0340   32.6710 C   0  0  0  0  0  0  0  0  0  0  0  0
   11.3510   59.0790   32.9810 C   0  0  0  0  0  0  0  0  0  0  0  0
   11.4650   60.5260   33.3960 C   0  0  0  0  0  0  0  0  0  0  0  0
  1 26  1  6  0  0  0
  1  9  1  0  0  0  0
  1  2  1  0  0  0  0
  2  3  1  0  0  0  0
  3  4  2  0  0  0  0
  5 14  1  1  0  0  0
  5  3  1  0  0  0  0
  6  5  1  0  0  0  0
  7  6  2  0  0  0  0
  8  6  1  0  0  0  0
  8  1  1  0  0  0  0
  9 10  1  0  0  0  0
 10 11  1  0  0  0  0
 12 11  1  0  0  0  0
 13 12  1  0  0  0  0
 13  9  1  0  0  0  0
 15 14  1  0  0  0  0
 15 25  2  0  0  0  0
 16 17  2  0  0  0  0
 16 15  2  0  0  0  0
 17 24  1  0  0  0  0
 18 19  2  0  0  0  0
 18 17  2  0  0  0  0
 19 21  1  0  0  0  0
 20 19  1  0  0  0  0
 21 22  2  0  0  0  0
 22 23  1  0  0  0  0
 24 25  1  0  0  0  0
 24 22  1  0  0  0  0
 26 27  1  0  0  0  0
 27 32  1  0  0  0  0
 28 29  2  0  0  0  0
 29 30  2  0  0  0  0
 30 36  1  0  0  0  0
 31 30  1  0  0  0  0
 32 31  2  0  0  0  0
 33 32  1  0  0  0  0
 33 28  1  0  0  0  0
 34 35  1  0  0  0  0
 35 28  1  0  0  0  0
 36 37  1  0  0  0  0
M  END
>  <minimizedAffinity>
-8.67026901

$$$$

 OpenBabel12271915223D

 37 41  0  0  1  0  0  0  0  0999 V2000
   16.7390   62.2550   32.3650 C   0  0  2  0  0  0  0  0  0  0  0  0
   17.6390   61.7970   33.4180 O   0  0  0  0  0  0  0  0  0  0  0  0
   18.6060   62.6220   33.9020 C   0  0  0  0  0  0  0  0  0  0  0  0
   18.9970   62.4890   35.0430 O   0  0  0  0  0  0  0  0  0  0  0  0
   19.1020   63.6470   32.9780 C   0  0  1  0  0  0  0  0  0  0  0  0
   18.6650   63.8020   31.6990 C   0  0  0  0  0  0  0  0  0  0  0  0
   19.0060   64.6570   30.8890 O   0  0  0  0  0  0  0  0  0  0  0  0
   17.5530   62.7880   31.2150 C   0  0  0  0  0  0  0  0  0  0  0  0
   15.8940   63.3400   33.0020 C   0  0  0  0  0  0  0  0  0  0  0  0
   14.6390   62.7850   33.6710 C   0  0  0  0  0  0  0  0  0  0  0  0
   13.8940   64.0720   33.9280 C   0  0  0  0  0  0  0  0  0  0  0  0
   13.9540   64.7410   32.5620 C   0  0  0  0  0  0  0  0  0  0  0  0
   15.4000   64.5040   32.1440 C   0  0  0  0  0  0  0  0  0  0  0  0
   20.1630   64.6450   33.4200 C   0  0  0  0  0  0  0  0  0  0  0  0
   21.5920   64.1270   33.2330 C   0  0  0  0  0  0  0  0  0  0  0  0
   22.4480   64.4800   32.2230 N   0  0  0  0  0  0  0  0  0  0  0  0
   23.5800   63.7900   32.4920 C   0  0  0  0  0  0  0  0  0  0  0  0
   24.8070   63.7420   31.8300 N   0  0  0  0  0  0  0  0  0  0  0  0
   25.7660   63.0120   32.2790 C   0  0  0  0  0  0  0  0  0  0  0  0
   27.1290   62.9250   31.5920 C   0  0  0  0  0  0  0  0  0  0  0  0
   25.6060   62.1910   33.4990 C   0  0  0  0  0  0  0  0  0  0  0  0
   24.4290   62.2490   34.1230 C   0  0  0  0  0  0  0  0  0  0  0  0
   24.1810   61.4490   35.3530 C   0  0  0  0  0  0  0  0  0  0  0  0
   23.3930   63.0690   33.6020 N   0  0  0  0  0  0  0  0  0  0  0  0
   22.1420   63.2850   34.0830 N   0  0  0  0  0  0  0  0  0  0  0  0
   15.9590   60.9840   31.9610 C   0  0  0  0  0  0  0  0  0  0  0  0
   16.2560   59.6860   32.7040 C   0  0  0  0  0  0  0  0  0  0  0  0
   12.6710   58.5990   32.4320 C   0  0  0  0  0  0  0  0  0  0  0  0
   12.7610   57.2570   32.4680 N   0  0  0  0  0  0  0  0  0  0  0  0
   14.0070   56.6910   32.5780 C   0  0  0  0  0  0  0  0  0  0  0  0
   15.1300   57.4330   32.6560 C   0  0  0  0  0  0  0  0  0  0  0  0
   15.0490   58.8200   32.6200 C   0  0  0  0  0  0  0  0  0  0  0  0
   13.7700   59.3970   32.5190 C   0  0  0  0  0  0  0  0  0  0  0  0
   10.8470   59.5600   33.7510 C   0  0  0  0  0  0  0  0  0  0  0  0
   11.3030   59.2430   32.3390 C   0  0  0  0  0  0  0  0  0  0  0  0
   14.0930   55.1720   32.6080 C   0  0  0  0  0  0  0  0  0  0  0  0
   14.7240   54.7230   33.9030 C   0  0  0  0  0  0  0  0  0  0  0  0
  1 26  1  6  0  0  0
  1  9  1  0  0  0  0
  1  2  1  0  0  0  0
  2  3  1  0  0  0  0
  3  4  2  0  0  0  0
  5 14  1  1  0  0  0
  5  3  1  0  0  0  0
  6  5  1  0  0  0  0
  7  6  2  0  0  0  0
  8  6  1  0  0  0  0
  8  1  1  0  0  0  0
  9 10  1  0  0  0  0
 10 11  1  0  0  0  0
 12 11  1  0  0  0  0
 13 12  1  0  0  0  0
 13  9  1  0  0  0  0
 15 14  1  0  0  0  0
 15 25  2  0  0  0  0
 16 17  2  0  0  0  0
 16 15  2  0  0  0  0
 17 24  1  0  0  0  0
 18 19  2  0  0  0  0
 18 17  2  0  0  0  0
 19 21  1  0  0  0  0
 20 19  1  0  0  0  0
 21 22  2  0  0  0  0
 22 23  1  0  0  0  0
 24 25  1  0  0  0  0
 24 22  1  0  0  0  0
 26 27  1  0  0  0  0
 28 29  2  0  0  0  0
 28 33  1  0  0  0  0
 29 30  2  0  0  0  0
 30 36  1  0  0  0  0
 30 31  1  0  0  0  0
 32 31  2  0  0  0  0
 32 27  1  0  0  0  0
 33 32  1  0  0  0  0
 35 28  1  0  0  0  0
 35 34  1  0  0  0  0
 36 37  1  0  0  0  0
M  END
>  <minimizedAffinity>
-8.57319355

$$$$

 OpenBabel12271915223D

 37 41  0  0  1  0  0  0  0  0999 V2000
   18.6500   68.4510   30.9620 C   0  0  2  0  0  0  0  0  0  0  0  0
   18.7950   69.1070   32.2580 O   0  0  0  0  0  0  0  0  0  0  0  0
   17.8400   69.9670   32.7030 C   0  0  0  0  0  0  0  0  0  0  0  0
   17.6660   70.1110   33.8950 O   0  0  0  0  0  0  0  0  0  0  0  0
   17.0620   70.6600   31.6700 C   0  0  1  0  0  0  0  0  0  0  0  0
   17.2500   70.4980   30.3330 C   0  0  0  0  0  0  0  0  0  0  0  0
   16.6150   71.0140   29.4200 O   0  0  0  0  0  0  0  0  0  0  0  0
   18.3940   69.4940   29.9060 C   0  0  0  0  0  0  0  0  0  0  0  0
   17.4720   67.5110   31.1170 C   0  0  0  0  0  0  0  0  0  0  0  0
   17.8990   66.1010   31.5180 C   0  0  0  0  0  0  0  0  0  0  0  0
   16.5980   65.3670   31.3010 C   0  0  0  0  0  0  0  0  0  0  0  0
   16.2200   65.8180   29.8980 C   0  0  0  0  0  0  0  0  0  0  0  0
   16.5140   67.3130   29.9420 C   0  0  0  0  0  0  0  0  0  0  0  0
   15.9470   71.6220   32.0510 C   0  0  0  0  0  0  0  0  0  0  0  0
   16.4510   73.0320   32.3730 C   0  0  0  0  0  0  0  0  0  0  0  0
   16.6470   73.5480   33.6270 N   0  0  0  0  0  0  0  0  0  0  0  0
   17.1110   74.7980   33.4010 C   0  0  0  0  0  0  0  0  0  0  0  0
   17.5000   75.8080   34.2820 N   0  0  0  0  0  0  0  0  0  0  0  0
   17.9300   76.9360   33.8380 C   0  0  0  0  0  0  0  0  0  0  0  0
   18.3680   78.0730   34.7600 C   0  0  0  0  0  0  0  0  0  0  0  0
   18.0180   77.2120   32.3880 C   0  0  0  0  0  0  0  0  0  0  0  0
   17.6460   76.2380   31.5570 C   0  0  0  0  0  0  0  0  0  0  0  0
   17.6970   76.4350   30.0830 C   0  0  0  0  0  0  0  0  0  0  0  0
   17.1810   75.0030   32.0810 N   0  0  0  0  0  0  0  0  0  0  0  0
   16.7750   73.8860   31.4240 N   0  0  0  0  0  0  0  0  0  0  0  0
   20.0100   67.7510   30.7430 C   0  0  0  0  0  0  0  0  0  0  0  0
   21.1330   68.0260   31.7370 C   0  0  0  0  0  0  0  0  0  0  0  0
   21.6440   64.3710   32.4360 C   0  0  0  0  0  0  0  0  0  0  0  0
   22.9690   64.2900   32.6540 N   0  0  0  0  0  0  0  0  0  0  0  0
   23.7140   65.4400   32.5690 C   0  0  0  0  0  0  0  0  0  0  0  0
   23.1620   66.6360   32.2820 C   0  0  0  0  0  0  0  0  0  0  0  0
   21.7940   66.7320   32.0560 C   0  0  0  0  0  0  0  0  0  0  0  0
   21.0320   65.5530   32.1550 C   0  0  0  0  0  0  0  0  0  0  0  0
   19.9040   63.0520   31.3300 C   0  0  0  0  0  0  0  0  0  0  0  0
   20.8010   63.1180   32.5520 C   0  0  0  0  0  0  0  0  0  0  0  0
   25.2140   65.3300   32.8080 C   0  0  0  0  0  0  0  0  0  0  0  0
   25.7270   64.0340   32.2310 C   0  0  0  0  0  0  0  0  0  0  0  0
  1 26  1  6  0  0  0
  1  9  1  0  0  0  0
  1  2  1  0  0  0  0
  2  3  1  0  0  0  0
  3  4  2  0  0  0  0
  5 14  1  6  0  0  0
  5  3  1  0  0  0  0
  6  5  1  0  0  0  0
  7  6  2  0  0  0  0
  8  6  1  0  0  0  0
  8  1  1  0  0  0  0
  9 10  1  0  0  0  0
 11 10  1  0  0  0  0
 12 13  1  0  0  0  0
 12 11  1  0  0  0  0
 13  9  1  0  0  0  0
 14 15  1  0  0  0  0
 15 16  2  0  0  0  0
 17 16  2  0  0  0  0
 17 18  2  0  0  0  0
 19 18  2  0  0  0  0
 19 20  1  0  0  0  0
 21 19  1  0  0  0  0
 22 24  1  0  0  0  0
 22 21  2  0  0  0  0
 23 22  1  0  0  0  0
 24 17  1  0  0  0  0
 25 24  1  0  0  0  0
 25 15  2  0  0  0  0
 26 27  1  0  0  0  0
 27 32  1  0  0  0  0
 28 35  1  0  0  0  0
 28 29  2  0  0  0  0
 30 29  2  0  0  0  0
 30 36  1  0  0  0  0
 31 30  1  0  0  0  0
 32 33  1  0  0  0  0
 32 31  2  0  0  0  0
 33 28  1  0  0  0  0
 34 35  1  0  0  0  0
 37 36  1  0  0  0  0
M  END
>  <minimizedAffinity>
-8.48625278

$$$$

 OpenBabel12271915223D

 37 41  0  0  1  0  0  0  0  0999 V2000
   16.7170   62.4030   32.2880 C   0  0  2  0  0  0  0  0  0  0  0  0
   17.5150   61.9270   33.4130 O   0  0  0  0  0  0  0  0  0  0  0  0
   18.5040   62.7030   33.9320 C   0  0  0  0  0  0  0  0  0  0  0  0
   18.8110   62.5880   35.0990 O   0  0  0  0  0  0  0  0  0  0  0  0
   19.1270   63.6570   33.0080 C   0  0  1  0  0  0  0  0  0  0  0  0
   18.7830   63.7920   31.6990 C   0  0  0  0  0  0  0  0  0  0  0  0
   19.2330   64.5910   30.8850 O   0  0  0  0  0  0  0  0  0  0  0  0
   17.6370   62.8370   31.1770 C   0  0  0  0  0  0  0  0  0  0  0  0
   15.9100   63.5650   32.8310 C   0  0  0  0  0  0  0  0  0  0  0  0
   14.5860   63.1190   33.4450 C   0  0  0  0  0  0  0  0  0  0  0  0
   13.9130   64.4610   33.6080 C   0  0  0  0  0  0  0  0  0  0  0  0
   14.0940   65.0650   32.2220 C   0  0  0  0  0  0  0  0  0  0  0  0
   15.5430   64.7200   31.9000 C   0  0  0  0  0  0  0  0  0  0  0  0
   20.2240   64.5980   33.4850 C   0  0  0  0  0  0  0  0  0  0  0  0
   21.5950   63.9240   33.5850 C   0  0  0  0  0  0  0  0  0  0  0  0
   21.8810   62.7890   34.2980 N   0  0  0  0  0  0  0  0  0  0  0  0
   23.1970   62.5770   34.0660 C   0  0  0  0  0  0  0  0  0  0  0  0
   24.0580   61.5720   34.5090 N   0  0  0  0  0  0  0  0  0  0  0  0
   25.2920   61.5590   34.1460 C   0  0  0  0  0  0  0  0  0  0  0  0
   26.2750   60.4820   34.6020 C   0  0  0  0  0  0  0  0  0  0  0  0
   25.8480   62.6060   33.2620 C   0  0  0  0  0  0  0  0  0  0  0  0
   25.0130   63.5590   32.8440 C   0  0  0  0  0  0  0  0  0  0  0  0
   25.4920   64.6530   31.9580 C   0  0  0  0  0  0  0  0  0  0  0  0
   23.6560   63.5390   33.2600 N   0  0  0  0  0  0  0  0  0  0  0  0
   22.6460   64.3900   32.9430 N   0  0  0  0  0  0  0  0  0  0  0  0
   15.8780   61.1720   31.8770 C   0  0  0  0  0  0  0  0  0  0  0  0
   15.9490   59.9240   32.7490 C   0  0  0  0  0  0  0  0  0  0  0  0
   12.2810   59.2200   33.1360 C   0  0  0  0  0  0  0  0  0  0  0  0
   12.0930   59.3260   34.4650 N   0  0  0  0  0  0  0  0  0  0  0  0
   13.1770   59.6290   35.2520 C   0  0  0  0  0  0  0  0  0  0  0  0
   14.4080   59.8240   34.7390 C   0  0  0  0  0  0  0  0  0  0  0  0
   14.6130   59.7170   33.3680 C   0  0  0  0  0  0  0  0  0  0  0  0
   13.4980   59.4190   32.5630 C   0  0  0  0  0  0  0  0  0  0  0  0
   11.3760   57.6040   31.5360 C   0  0  0  0  0  0  0  0  0  0  0  0
   11.0930   58.9140   32.2480 C   0  0  0  0  0  0  0  0  0  0  0  0
   12.9500   59.7370   36.7540 C   0  0  0  0  0  0  0  0  0  0  0  0
   12.9260   61.1900   37.1610 C   0  0  0  0  0  0  0  0  0  0  0  0
  1 26  1  6  0  0  0
  1  9  1  0  0  0  0
  1  2  1  0  0  0  0
  2  3  1  0  0  0  0
  3  4  2  0  0  0  0
  5 14  1  1  0  0  0
  5  3  1  0  0  0  0
  6  5  1  0  0  0  0
  7  6  2  0  0  0  0
  8  6  1  0  0  0  0
  8  1  1  0  0  0  0
  9 10  1  0  0  0  0
 10 11  1  0  0  0  0
 12 11  1  0  0  0  0
 13 12  1  0  0  0  0
 13  9  1  0  0  0  0
 14 15  1  0  0  0  0
 15 16  2  0  0  0  0
 17 16  2  0  0  0  0
 17 18  2  0  0  0  0
 19 18  2  0  0  0  0
 19 20  1  0  0  0  0
 21 19  1  0  0  0  0
 22 24  1  0  0  0  0
 22 21  2  0  0  0  0
 23 22  1  0  0  0  0
 24 17  1  0  0  0  0
 25 24  1  0  0  0  0
 25 15  2  0  0  0  0
 26 27  1  0  0  0  0
 27 32  1  0  0  0  0
 28 29  2  0  0  0  0
 29 30  2  0  0  0  0
 30 36  1  0  0  0  0
 31 30  1  0  0  0  0
 32 31  2  0  0  0  0
 33 28  1  0  0  0  0
 33 32  1  0  0  0  0
 34 35  1  0  0  0  0
 35 28  1  0  0  0  0
 36 37  1  0  0  0  0
M  END
>  <minimizedAffinity>
-8.34800148

$$$$

 OpenBabel12271915223D

 37 41  0  0  1  0  0  0  0  0999 V2000
   21.4450   64.9330   32.3230 C   0  0  2  0  0  0  0  0  0  0  0  0
   21.4490   63.8550   31.3410 O   0  0  0  0  0  0  0  0  0  0  0  0
   20.3310   63.1070   31.1360 C   0  0  0  0  0  0  0  0  0  0  0  0
   20.1360   62.5980   30.0530 O   0  0  0  0  0  0  0  0  0  0  0  0
   19.4150   62.9900   32.2760 C   0  0  1  0  0  0  0  0  0  0  0  0
   19.6280   63.5630   33.4910 C   0  0  0  0  0  0  0  0  0  0  0  0
   18.8900   63.5370   34.4700 O   0  0  0  0  0  0  0  0  0  0  0  0
   20.9610   64.3970   33.6450 C   0  0  0  0  0  0  0  0  0  0  0  0
   20.5020   65.9810   31.7660 C   0  0  0  0  0  0  0  0  0  0  0  0
   21.1910   67.3240   31.5410 C   0  0  0  0  0  0  0  0  0  0  0  0
   19.9820   68.1930   31.2880 C   0  0  0  0  0  0  0  0  0  0  0  0
   19.0920   67.8340   32.4700 C   0  0  0  0  0  0  0  0  0  0  0  0
   19.2230   66.3170   32.5300 C   0  0  0  0  0  0  0  0  0  0  0  0
   18.1180   62.2040   32.1540 C   0  0  0  0  0  0  0  0  0  0  0  0
   18.2860   60.7130   32.4640 C   0  0  0  0  0  0  0  0  0  0  0  0
   19.4580   60.0060   32.4000 N   0  0  0  0  0  0  0  0  0  0  0  0
   19.1100   58.7540   32.7760 C   0  0  0  0  0  0  0  0  0  0  0  0
   19.8690   57.5920   32.9180 N   0  0  0  0  0  0  0  0  0  0  0  0
   19.3220   56.4960   33.3090 C   0  0  0  0  0  0  0  0  0  0  0  0
   20.1090   55.1960   33.4800 C   0  0  0  0  0  0  0  0  0  0  0  0
   17.8760   56.4180   33.6100 C   0  0  0  0  0  0  0  0  0  0  0  0
   17.1630   57.5370   33.4730 C   0  0  0  0  0  0  0  0  0  0  0  0
   15.7010   57.5450   33.7500 C   0  0  0  0  0  0  0  0  0  0  0  0
   17.8000   58.7310   33.0450 N   0  0  0  0  0  0  0  0  0  0  0  0
   17.2740   59.9690   32.8600 N   0  0  0  0  0  0  0  0  0  0  0  0
   22.9240   65.3730   32.4010 C   0  0  0  0  0  0  0  0  0  0  0  0
   23.6840   65.1260   33.6990 C   0  0  0  0  0  0  0  0  0  0  0  0
   25.4260   61.8290   34.1510 C   0  0  0  0  0  0  0  0  0  0  0  0
   26.3070   61.8140   33.1340 N   0  0  0  0  0  0  0  0  0  0  0  0
   26.3360   62.8900   32.2820 C   0  0  0  0  0  0  0  0  0  0  0  0
   25.5200   63.9520   32.4350 C   0  0  0  0  0  0  0  0  0  0  0  0
   24.6070   63.9790   33.4830 C   0  0  0  0  0  0  0  0  0  0  0  0
   24.5870   62.8800   34.3610 C   0  0  0  0  0  0  0  0  0  0  0  0
   23.9900   60.5630   35.6760 C   0  0  0  0  0  0  0  0  0  0  0  0
   25.3980   60.6640   35.1180 C   0  0  0  0  0  0  0  0  0  0  0  0
   27.3310   62.8530   31.1310 C   0  0  0  0  0  0  0  0  0  0  0  0
   28.2140   61.6360   31.2610 C   0  0  0  0  0  0  0  0  0  0  0  0
  1 26  1  1  0  0  0
  1  8  1  0  0  0  0
  2  1  1  0  0  0  0
  3  2  1  0  0  0  0
  3  5  1  0  0  0  0
  4  3  2  0  0  0  0
  5 14  1  6  0  0  0
  5  6  1  0  0  0  0
  6  8  1  0  0  0  0
  6  7  2  0  0  0  0
  9  1  1  0  0  0  0
  9 13  1  0  0  0  0
 10  9  1  0  0  0  0
 11 10  1  0  0  0  0
 11 12  1  0  0  0  0
 12 13  1  0  0  0  0
 14 15  1  0  0  0  0
 15 25  2  0  0  0  0
 16 15  2  0  0  0  0
 16 17  2  0  0  0  0
 17 18  2  0  0  0  0
 17 24  1  0  0  0  0
 18 19  2  0  0  0  0
 19 20  1  0  0  0  0
 19 21  1  0  0  0  0
 22 21  2  0  0  0  0
 22 23  1  0  0  0  0
 24 22  1  0  0  0  0
 25 24  1  0  0  0  0
 26 27  1  0  0  0  0
 28 33  1  0  0  0  0
 28 35  1  0  0  0  0
 29 28  2  0  0  0  0
 30 31  1  0  0  0  0
 30 29  2  0  0  0  0
 31 32  2  0  0  0  0
 32 27  1  0  0  0  0
 32 33  1  0  0  0  0
 35 34  1  0  0  0  0
 36 37  1  0  0  0  0
 36 30  1  0  0  0  0
M  END
>  <minimizedAffinity>
-8.33092594

$$$$
