DB08569
     RDKit          3D

 50 53  0  0  0  0  0  0  0  0999 V2000
   -2.9782   -0.5278   -1.1231 C   0  0  2  0  0  0  0  0  0  0  0  0
   -2.4947    0.7623   -0.4397 C   0  0  0  0  0  0  0  0  0  0  0  0
   -1.2322    0.6215    0.1251 O   0  0  0  0  0  0  0  0  0  0  0  0
   -0.1321    0.7309   -0.6544 C   0  0  0  0  0  0  0  0  0  0  0  0
   -0.0158    0.7522   -2.0563 C   0  0  0  0  0  0  0  0  0  0  0  0
    1.1825    0.7062   -2.6666 N   0  0  0  0  0  0  0  0  0  0  0  0
    2.2726    0.7149   -1.9032 C   0  0  0  0  0  0  0  0  0  0  0  0
    2.2971    0.7318   -0.5140 C   0  0  0  0  0  0  0  0  0  0  0  0
    3.5187    0.7180    0.3210 C   0  0  0  0  0  0  0  0  0  0  0  0
    4.6537    0.0072   -0.1670 C   0  0  0  0  0  0  0  0  0  0  0  0
    5.8490   -0.0036    0.5951 C   0  0  0  0  0  0  0  0  0  0  0  0
    5.9241    0.6174    1.7803 C   0  0  0  0  0  0  0  0  0  0  0  0
    4.8240    1.3064    2.3223 C   0  0  0  0  0  0  0  0  0  0  0  0
    3.6543    1.3287    1.5424 C   0  0  0  0  0  0  0  0  0  0  0  0
    7.2107    0.4162    2.2439 N   0  0  0  0  0  0  0  0  0  0  0  0
    7.9395   -0.3041    1.3991 N   0  0  0  0  0  0  0  0  0  0  0  0
    7.1257   -0.5779    0.3580 C   0  0  0  0  0  0  0  0  0  0  0  0
    7.5835   -1.3500   -0.7876 C   0  0  0  0  0  0  0  0  0  0  0  0
    1.0704    0.7279    0.1037 C   0  0  0  0  0  0  0  0  0  0  0  0
   -4.4619   -0.4975   -1.5713 C   0  0  0  0  0  0  0  0  0  0  0  0
   -5.4479   -0.3367   -0.4430 C   0  0  0  0  0  0  0  0  0  0  0  0
   -5.9790   -1.4307    0.2032 C   0  0  0  0  0  0  0  0  0  0  0  0
   -6.8796   -1.2671    1.2748 C   0  0  0  0  0  0  0  0  0  0  0  0
   -7.2570    0.0049    1.6929 C   0  0  0  0  0  0  0  0  0  0  0  0
   -6.7286    1.1062    1.0336 C   0  0  0  0  0  0  0  0  0  0  0  0
   -5.8360    0.9427   -0.0353 C   0  0  0  0  0  0  0  0  0  0  0  0
   -8.4772    0.2123    3.0957 Br  0  0  0  0  0  0  0  0  0  0  0  0
   -2.7187   -1.7017   -0.2133 N   0  0  0  0  0  0  0  0  0  0  0  0
   -2.3351   -0.7324   -1.9883 H   0  0  0  0  0  0  0  0  0  0  0  0
   -2.5750    1.6927   -1.0648 H   0  0  0  0  0  0  0  0  0  0  0  0
   -3.1597    0.9497    0.4399 H   0  0  0  0  0  0  0  0  0  0  0  0
   -0.8824    0.7771   -2.7178 H   0  0  0  0  0  0  0  0  0  0  0  0
    3.1870    0.7253   -2.4976 H   0  0  0  0  0  0  0  0  0  0  0  0
    4.6258   -0.5375   -1.1023 H   0  0  0  0  0  0  0  0  0  0  0  0
    4.8850    1.8107    3.2882 H   0  0  0  0  0  0  0  0  0  0  0  0
    2.8221    1.8874    1.9674 H   0  0  0  0  0  0  0  0  0  0  0  0
    7.6347    0.7222    3.0797 H   0  0  0  0  0  0  0  0  0  0  0  0
    6.8720   -1.2679   -1.6318 H   0  0  0  0  0  0  0  0  0  0  0  0
    7.6706   -2.4255   -0.5280 H   0  0  0  0  0  0  0  0  0  0  0  0
    8.5697   -1.0032   -1.1618 H   0  0  0  0  0  0  0  0  0  0  0  0
    0.9590    0.7009    1.1722 H   0  0  0  0  0  0  0  0  0  0  0  0
   -4.6120    0.3031   -2.3173 H   0  0  0  0  0  0  0  0  0  0  0  0
   -4.6959   -1.4253   -2.1258 H   0  0  0  0  0  0  0  0  0  0  0  0
   -5.7593   -2.4606   -0.1008 H   0  0  0  0  0  0  0  0  0  0  0  0
   -7.3006   -2.1404    1.7707 H   0  0  0  0  0  0  0  0  0  0  0  0
   -7.0195    2.1114    1.3343 H   0  0  0  0  0  0  0  0  0  0  0  0
   -5.4759    1.8439   -0.5378 H   0  0  0  0  0  0  0  0  0  0  0  0
   -3.0973   -1.5165    0.7425 H   0  0  0  0  0  0  0  0  0  0  0  0
   -3.0822   -2.5830   -0.5558 H   0  0  0  0  0  0  0  0  0  0  0  0
   -1.6980   -1.8425   -0.0664 H   0  0  0  0  0  0  0  0  0  0  0  0
  1  2  1  0
  2  3  1  0
  3  4  1  0
  4  5  2  0
  5  6  1  0
  6  7  2  0
  7  8  1  0
  8  9  1  0
  9 10  2  0
 10 11  1  0
 11 12  2  0
 12 13  1  0
 13 14  2  0
 12 15  1  0
 15 16  1  0
 16 17  2  0
 17 18  1  0
  8 19  2  0
  1 20  1  0
 20 21  1  0
 21 22  2  0
 22 23  1  0
 23 24  2  0
 24 25  1  0
 25 26  2  0
 24 27  1  0
  1 28  1  0
 19  4  1  0
 14  9  1  0
 17 11  1  0
 26 21  1  0
  1 29  1  6
  2 30  1  0
  2 31  1  0
  5 32  1  0
  7 33  1  0
 10 34  1  0
 13 35  1  0
 14 36  1  0
 15 37  1  0
 18 38  1  0
 18 39  1  0
 18 40  1  0
 19 41  1  0
 20 42  1  0
 20 43  1  0
 22 44  1  0
 23 45  1  0
 25 46  1  0
 26 47  1  0
 28 48  1  0
 28 49  1  0
 28 50  1  0
M  CHG  1  28   1
M  END
>  <conformer_id>  (1) 
5

>  <converged>  (1) 
1

>  <energy_abs>  (1) 
132.54450743258505

>  <cluster_no>  (1) 
1

>  <cluster_centroid>  (1) 
5

>  <rms_to_centroid>  (1) 
0.0

>  <energy_delta>  (1) 
6.4061508821739892

$$$$
DB08569
     RDKit          3D

 50 53  0  0  0  0  0  0  0  0999 V2000
   -2.8518   -1.6133   -0.1542 C   0  0  2  0  0  0  0  0  0  0  0  0
   -2.4164   -0.7931   -1.3651 C   0  0  0  0  0  0  0  0  0  0  0  0
   -1.7500    0.4883   -0.9850 O   0  0  0  0  0  0  0  0  0  0  0  0
   -0.5225    0.9036   -0.7263 C   0  0  0  0  0  0  0  0  0  0  0  0
   -0.4516    2.2707   -0.7167 C   0  0  0  0  0  0  0  0  0  0  0  0
    0.6660    2.9924   -0.3840 N   0  0  0  0  0  0  0  0  0  0  0  0
    1.7417    2.2876   -0.0516 C   0  0  0  0  0  0  0  0  0  0  0  0
    1.8014    0.9090   -0.0368 C   0  0  0  0  0  0  0  0  0  0  0  0
    3.0244    0.2008    0.3125 C   0  0  0  0  0  0  0  0  0  0  0  0
    4.2625    0.7702   -0.0203 C   0  0  0  0  0  0  0  0  0  0  0  0
    5.4539    0.1270    0.2976 C   0  0  0  0  0  0  0  0  0  0  0  0
    5.4137   -1.0933    0.9380 C   0  0  0  0  0  0  0  0  0  0  0  0
    4.2086   -1.7201    1.3020 C   0  0  0  0  0  0  0  0  0  0  0  0
    3.0152   -1.0368    0.9805 C   0  0  0  0  0  0  0  0  0  0  0  0
    6.7073   -1.4488    1.0889 N   0  0  0  0  0  0  0  0  0  0  0  0
    7.6036   -0.5391    0.5900 N   0  0  0  0  0  0  0  0  0  0  0  0
    6.8021    0.4252    0.1107 C   0  0  0  0  0  0  0  0  0  0  0  0
    7.3322    1.6748   -0.5328 C   0  0  0  0  0  0  0  0  0  0  0  0
    0.5981    0.2052   -0.4090 C   0  0  0  0  0  0  0  0  0  0  0  0
   -3.4930   -0.8102    0.9908 C   0  0  0  0  0  0  0  0  0  0  0  0
   -4.7628   -0.1768    0.4839 C   0  0  0  0  0  0  0  0  0  0  0  0
   -4.7601    1.1328   -0.0313 C   0  0  0  0  0  0  0  0  0  0  0  0
   -5.9323    1.6592   -0.5602 C   0  0  0  0  0  0  0  0  0  0  0  0
   -7.1051    0.9084   -0.5650 C   0  0  0  0  0  0  0  0  0  0  0  0
   -7.1063   -0.3829   -0.0682 C   0  0  0  0  0  0  0  0  0  0  0  0
   -5.9438   -0.9383    0.4530 C   0  0  0  0  0  0  0  0  0  0  0  0
   -8.6935    1.6457   -1.2584 Br  0  0  0  0  0  0  0  0  0  0  0  0
   -1.6619   -2.3811    0.3901 N   0  0  0  0  0  0  0  0  0  0  0  0
   -3.5238   -2.3953   -0.5026 H   0  0  0  0  0  0  0  0  0  0  0  0
   -1.8210   -1.2958   -2.0501 H   0  0  0  0  0  0  0  0  0  0  0  0
   -3.3321   -0.4608   -1.8842 H   0  0  0  0  0  0  0  0  0  0  0  0
   -1.3001    2.8950   -0.9706 H   0  0  0  0  0  0  0  0  0  0  0  0
    2.6282    2.8781    0.2228 H   0  0  0  0  0  0  0  0  0  0  0  0
    4.3132    1.7217   -0.5416 H   0  0  0  0  0  0  0  0  0  0  0  0
    4.1891   -2.6676    1.8026 H   0  0  0  0  0  0  0  0  0  0  0  0
    2.0910   -1.4844    1.2786 H   0  0  0  0  0  0  0  0  0  0  0  0
    7.0742   -2.2822    1.5173 H   0  0  0  0  0  0  0  0  0  0  0  0
    6.4956    2.2631   -0.9615 H   0  0  0  0  0  0  0  0  0  0  0  0
    7.8193    2.3151    0.1918 H   0  0  0  0  0  0  0  0  0  0  0  0
    8.0235    1.4506   -1.3445 H   0  0  0  0  0  0  0  0  0  0  0  0
    0.6432   -0.8784   -0.4257 H   0  0  0  0  0  0  0  0  0  0  0  0
   -2.8157   -0.0437    1.3728 H   0  0  0  0  0  0  0  0  0  0  0  0
   -3.7335   -1.4644    1.8213 H   0  0  0  0  0  0  0  0  0  0  0  0
   -3.8622    1.7304   -0.0402 H   0  0  0  0  0  0  0  0  0  0  0  0
   -5.9214    2.6730   -0.9619 H   0  0  0  0  0  0  0  0  0  0  0  0
   -8.0229   -0.9783   -0.0788 H   0  0  0  0  0  0  0  0  0  0  0  0
   -5.9664   -1.9447    0.8298 H   0  0  0  0  0  0  0  0  0  0  0  0
   -1.0155   -2.6014   -0.3591 H   0  0  0  0  0  0  0  0  0  0  0  0
   -1.9675   -3.2545    0.8094 H   0  0  0  0  0  0  0  0  0  0  0  0
   -1.1751   -1.8426    1.1163 H   0  0  0  0  0  0  0  0  0  0  0  0
  1  2  1  0
  2  3  1  0
  3  4  1  0
  4  5  2  0
  5  6  1  0
  6  7  2  0
  7  8  1  0
  8  9  1  0
  9 10  2  0
 10 11  1  0
 11 12  2  0
 12 13  1  0
 13 14  2  0
 12 15  1  0
 15 16  1  0
 16 17  2  0
 17 18  1  0
  8 19  2  0
  1 20  1  0
 20 21  1  0
 21 22  2  0
 22 23  1  0
 23 24  2  0
 24 25  1  0
 25 26  2  0
 24 27  1  0
  1 28  1  0
 19  4  1  0
 14  9  1  0
 17 11  1  0
 26 21  1  0
  1 29  1  6
  2 30  1  0
  2 31  1  0
  5 32  1  0
  7 33  1  0
 10 34  1  0
 13 35  1  0
 14 36  1  0
 15 37  1  0
 18 38  1  0
 18 39  1  0
 18 40  1  0
 19 41  1  0
 20 42  1  0
 20 43  1  0
 22 44  1  0
 23 45  1  0
 25 46  1  0
 26 47  1  0
 28 48  1  0
 28 49  1  0
 28 50  1  0
M  CHG  1  28   1
M  END
>  <conformer_id>  (2) 
4

>  <converged>  (2) 
1

>  <energy_abs>  (2) 
154.70891413922666

>  <cluster_no>  (2) 
2

>  <cluster_centroid>  (2) 
4

>  <rms_to_centroid>  (2) 
0.0

>  <energy_delta>  (2) 
28.570557588815603

$$$$
DB08569
     RDKit          3D

 50 53  0  0  0  0  0  0  0  0999 V2000
   -3.2528   -1.5076   -0.7003 C   0  0  2  0  0  0  0  0  0  0  0  0
   -2.0468   -1.7342   -1.4944 C   0  0  0  0  0  0  0  0  0  0  0  0
   -0.8855   -0.8322   -1.0685 O   0  0  0  0  0  0  0  0  0  0  0  0
   -0.0813    0.1608   -0.9891 C   0  0  0  0  0  0  0  0  0  0  0  0
   -0.2566    1.4257   -1.2353 C   0  0  0  0  0  0  0  0  0  0  0  0
    0.7405    2.3715   -0.9815 N   0  0  0  0  0  0  0  0  0  0  0  0
    1.9159    1.9193   -0.4827 C   0  0  0  0  0  0  0  0  0  0  0  0
    2.2082    0.5997   -0.2124 C   0  0  0  0  0  0  0  0  0  0  0  0
    3.4377    0.1271    0.3171 C   0  0  0  0  0  0  0  0  0  0  0  0
    4.6477    0.7593    0.0114 C   0  0  0  0  0  0  0  0  0  0  0  0
    5.8473    0.2935    0.5278 C   0  0  0  0  0  0  0  0  0  0  0  0
    5.8570   -0.7972    1.3497 C   0  0  0  0  0  0  0  0  0  0  0  0
    4.6970   -1.4542    1.6825 C   0  0  0  0  0  0  0  0  0  0  0  0
    3.4892   -0.9708    1.1522 C   0  0  0  0  0  0  0  0  0  0  0  0
    7.1706   -1.0343    1.7122 N   0  0  0  0  0  0  0  0  0  0  0  0
    8.0096   -0.1050    1.1308 N   0  0  0  0  0  0  0  0  0  0  0  0
    7.1797    0.6850    0.4168 C   0  0  0  0  0  0  0  0  0  0  0  0
    7.6524    1.8678   -0.3971 C   0  0  0  0  0  0  0  0  0  0  0  0
    1.1196   -0.3017   -0.4935 C   0  0  0  0  0  0  0  0  0  0  0  0
   -3.8999   -0.1897   -1.1444 C   0  0  0  0  0  0  0  0  0  0  0  0
   -5.1665    0.1092   -0.4428 C   0  0  0  0  0  0  0  0  0  0  0  0
   -5.1507    0.8618    0.7314 C   0  0  0  0  0  0  0  0  0  0  0  0
   -6.3172    1.1827    1.4035 C   0  0  0  0  0  0  0  0  0  0  0  0
   -7.5365    0.7450    0.8966 C   0  0  0  0  0  0  0  0  0  0  0  0
   -7.5690   -0.0036   -0.2640 C   0  0  0  0  0  0  0  0  0  0  0  0
   -6.3796   -0.3371   -0.9553 C   0  0  0  0  0  0  0  0  0  0  0  0
   -9.1214    1.1876    1.8153 Br  0  0  0  0  0  0  0  0  0  0  0  0
   -2.9220   -1.5489    0.8090 N   0  0  0  0  0  0  0  0  0  0  0  0
   -3.9082   -2.3255   -0.9054 H   0  0  0  0  0  0  0  0  0  0  0  0
   -2.1813   -1.6186   -2.5105 H   0  0  0  0  0  0  0  0  0  0  0  0
   -1.6915   -2.7251   -1.2871 H   0  0  0  0  0  0  0  0  0  0  0  0
   -1.1841    1.8577   -1.6102 H   0  0  0  0  0  0  0  0  0  0  0  0
    2.6764    2.6861   -0.2902 H   0  0  0  0  0  0  0  0  0  0  0  0
    4.6364    1.6139   -0.6419 H   0  0  0  0  0  0  0  0  0  0  0  0
    4.7052   -2.2994    2.3194 H   0  0  0  0  0  0  0  0  0  0  0  0
    2.5687   -1.4686    1.4025 H   0  0  0  0  0  0  0  0  0  0  0  0
    7.5437   -1.7614    2.3121 H   0  0  0  0  0  0  0  0  0  0  0  0
    7.8606    2.6995    0.2749 H   0  0  0  0  0  0  0  0  0  0  0  0
    6.8820    2.2100   -1.0964 H   0  0  0  0  0  0  0  0  0  0  0  0
    8.5498    1.5780   -0.9584 H   0  0  0  0  0  0  0  0  0  0  0  0
    1.3122   -1.3331   -0.2906 H   0  0  0  0  0  0  0  0  0  0  0  0
   -3.2150    0.6465   -0.9637 H   0  0  0  0  0  0  0  0  0  0  0  0
   -4.0603   -0.2869   -2.2070 H   0  0  0  0  0  0  0  0  0  0  0  0
   -4.2214    1.2182    1.1332 H   0  0  0  0  0  0  0  0  0  0  0  0
   -6.2754    1.7677    2.3020 H   0  0  0  0  0  0  0  0  0  0  0  0
   -8.5160   -0.3422   -0.6601 H   0  0  0  0  0  0  0  0  0  0  0  0
   -6.3895   -0.9095   -1.8577 H   0  0  0  0  0  0  0  0  0  0  0  0
   -2.1245   -2.1390    0.9247 H   0  0  0  0  0  0  0  0  0  0  0  0
   -2.6573   -0.6174    1.1252 H   0  0  0  0  0  0  0  0  0  0  0  0
   -3.6972   -1.9304    1.3051 H   0  0  0  0  0  0  0  0  0  0  0  0
  1  2  1  0
  2  3  1  0
  3  4  1  0
  4  5  2  0
  5  6  1  0
  6  7  2  0
  7  8  1  0
  8  9  1  0
  9 10  2  0
 10 11  1  0
 11 12  2  0
 12 13  1  0
 13 14  2  0
 12 15  1  0
 15 16  1  0
 16 17  2  0
 17 18  1  0
  8 19  2  0
  1 20  1  0
 20 21  1  0
 21 22  2  0
 22 23  1  0
 23 24  2  0
 24 25  1  0
 25 26  2  0
 24 27  1  0
  1 28  1  0
 19  4  1  0
 14  9  1  0
 17 11  1  0
 26 21  1  0
  1 29  1  1
  2 30  1  0
  2 31  1  0
  5 32  1  0
  7 33  1  0
 10 34  1  0
 13 35  1  0
 14 36  1  0
 15 37  1  0
 18 38  1  0
 18 39  1  0
 18 40  1  0
 19 41  1  0
 20 42  1  0
 20 43  1  0
 22 44  1  0
 23 45  1  0
 25 46  1  0
 26 47  1  0
 28 48  1  0
 28 49  1  0
 28 50  1  0
M  CHG  1  28   1
M  END
>  <conformer_id>  (3) 
3

>  <converged>  (3) 
1

>  <energy_abs>  (3) 
190.48436245053688

>  <cluster_no>  (3) 
3

>  <cluster_centroid>  (3) 
3

>  <rms_to_centroid>  (3) 
0.0

>  <energy_delta>  (3) 
64.346005900125817

$$$$
DB08569
     RDKit          3D

 50 53  0  0  0  0  0  0  0  0999 V2000
   -3.1332   -0.6986    0.2391 C   0  0  2  0  0  0  0  0  0  0  0  0
   -2.2253   -1.7248    0.9356 C   0  0  0  0  0  0  0  0  0  0  0  0
   -0.8750   -1.6022    0.5355 O   0  0  0  0  0  0  0  0  0  0  0  0
   -0.0378   -0.6653    1.0362 C   0  0  0  0  0  0  0  0  0  0  0  0
   -0.2989    0.4799    1.7872 C   0  0  0  0  0  0  0  0  0  0  0  0
    0.6711    1.3853    2.0888 N   0  0  0  0  0  0  0  0  0  0  0  0
    1.9425    1.1057    1.6898 C   0  0  0  0  0  0  0  0  0  0  0  0
    2.3191   -0.0337    0.9773 C   0  0  0  0  0  0  0  0  0  0  0  0
    3.7046   -0.3440    0.5888 C   0  0  0  0  0  0  0  0  0  0  0  0
    4.6138    0.6747    0.2615 C   0  0  0  0  0  0  0  0  0  0  0  0
    5.9303    0.3548   -0.1142 C   0  0  0  0  0  0  0  0  0  0  0  0
    6.3255   -0.9649   -0.1732 C   0  0  0  0  0  0  0  0  0  0  0  0
    5.4593   -2.0115    0.1259 C   0  0  0  0  0  0  0  0  0  0  0  0
    4.1579   -1.6666    0.5136 C   0  0  0  0  0  0  0  0  0  0  0  0
    7.6408   -0.9430   -0.5578 N   0  0  0  0  0  0  0  0  0  0  0  0
    8.1122    0.2892   -0.7540 N   0  0  0  0  0  0  0  0  0  0  0  0
    7.0818    1.0926   -0.4877 C   0  0  0  0  0  0  0  0  0  0  0  0
    7.2054    2.5700   -0.6035 C   0  0  0  0  0  0  0  0  0  0  0  0
    1.2785   -0.8861    0.6463 C   0  0  0  0  0  0  0  0  0  0  0  0
   -4.5985   -1.1136    0.3988 C   0  0  0  0  0  0  0  0  0  0  0  0
   -5.5680   -0.1340   -0.1995 C   0  0  0  0  0  0  0  0  0  0  0  0
   -5.9710   -0.2652   -1.5365 C   0  0  0  0  0  0  0  0  0  0  0  0
   -6.8745    0.6362   -2.0887 C   0  0  0  0  0  0  0  0  0  0  0  0
   -7.3933    1.6643   -1.3111 C   0  0  0  0  0  0  0  0  0  0  0  0
   -7.0014    1.8001    0.0201 C   0  0  0  0  0  0  0  0  0  0  0  0
   -6.0842    0.9114    0.5748 C   0  0  0  0  0  0  0  0  0  0  0  0
   -8.6412    2.8612   -2.0550 Br  0  0  0  0  0  0  0  0  0  0  0  0
   -2.7576   -0.6377   -1.2259 N   0  0  0  0  0  0  0  0  0  0  0  0
   -2.9455    0.3054    0.6143 H   0  0  0  0  0  0  0  0  0  0  0  0
   -2.5171   -2.7238    0.5656 H   0  0  0  0  0  0  0  0  0  0  0  0
   -2.3283   -1.7664    2.0311 H   0  0  0  0  0  0  0  0  0  0  0  0
   -1.2784    0.7405    2.1649 H   0  0  0  0  0  0  0  0  0  0  0  0
    2.6559    1.8613    2.0128 H   0  0  0  0  0  0  0  0  0  0  0  0
    4.3276    1.7235    0.2769 H   0  0  0  0  0  0  0  0  0  0  0  0
    5.7690   -3.0560    0.0779 H   0  0  0  0  0  0  0  0  0  0  0  0
    3.4930   -2.4887    0.7783 H   0  0  0  0  0  0  0  0  0  0  0  0
    8.2658   -1.7211   -0.7116 H   0  0  0  0  0  0  0  0  0  0  0  0
    8.1982    2.9256   -0.2853 H   0  0  0  0  0  0  0  0  0  0  0  0
    7.0493    2.8866   -1.6434 H   0  0  0  0  0  0  0  0  0  0  0  0
    6.4558    3.0725    0.0341 H   0  0  0  0  0  0  0  0  0  0  0  0
    1.4823   -1.7820    0.0643 H   0  0  0  0  0  0  0  0  0  0  0  0
   -4.7738   -2.0994   -0.0538 H   0  0  0  0  0  0  0  0  0  0  0  0
   -4.8411   -1.2366    1.4638 H   0  0  0  0  0  0  0  0  0  0  0  0
   -5.6280   -1.0877   -2.1642 H   0  0  0  0  0  0  0  0  0  0  0  0
   -7.1879    0.5178   -3.1183 H   0  0  0  0  0  0  0  0  0  0  0  0
   -7.4196    2.5923    0.6407 H   0  0  0  0  0  0  0  0  0  0  0  0
   -5.8225    1.0315    1.6208 H   0  0  0  0  0  0  0  0  0  0  0  0
   -3.2518    0.1278   -1.7076 H   0  0  0  0  0  0  0  0  0  0  0  0
   -1.7496   -0.4382   -1.3383 H   0  0  0  0  0  0  0  0  0  0  0  0
   -2.9365   -1.5195   -1.7204 H   0  0  0  0  0  0  0  0  0  0  0  0
  1  2  1  0
  2  3  1  0
  3  4  1  0
  4  5  2  0
  5  6  1  0
  6  7  2  0
  7  8  1  0
  8  9  1  0
  9 10  2  0
 10 11  1  0
 11 12  2  0
 12 13  1  0
 13 14  2  0
 12 15  1  0
 15 16  1  0
 16 17  2  0
 17 18  1  0
  8 19  2  0
  1 20  1  0
 20 21  1  0
 21 22  2  0
 22 23  1  0
 23 24  2  0
 24 25  1  0
 25 26  2  0
 24 27  1  0
  1 28  1  0
 19  4  1  0
 14  9  1  0
 17 11  1  0
 26 21  1  0
  1 29  1  1
  2 30  1  0
  2 31  1  0
  5 32  1  0
  7 33  1  0
 10 34  1  0
 13 35  1  0
 14 36  1  0
 15 37  1  0
 18 38  1  0
 18 39  1  0
 18 40  1  0
 19 41  1  0
 20 42  1  0
 20 43  1  0
 22 44  1  0
 23 45  1  0
 25 46  1  0
 26 47  1  0
 28 48  1  0
 28 49  1  0
 28 50  1  0
M  CHG  1  28   1
M  END
>  <conformer_id>  (4) 
2

>  <converged>  (4) 
1

>  <energy_abs>  (4) 
126.13835655041106

>  <cluster_no>  (4) 
4

>  <cluster_centroid>  (4) 
2

>  <rms_to_centroid>  (4) 
0.0

>  <energy_delta>  (4) 
0

$$$$
DB08569
     RDKit          3D

 50 53  0  0  0  0  0  0  0  0999 V2000
   -3.7525   -1.8888   -0.7710 C   0  0  2  0  0  0  0  0  0  0  0  0
   -2.6273   -1.0774   -1.4357 C   0  0  0  0  0  0  0  0  0  0  0  0
   -1.3993   -1.2205   -0.7171 O   0  0  0  0  0  0  0  0  0  0  0  0
   -0.3274   -0.5114   -1.1833 C   0  0  0  0  0  0  0  0  0  0  0  0
   -0.3133    0.3295   -2.2830 C   0  0  0  0  0  0  0  0  0  0  0  0
    0.8096    0.9614   -2.6632 N   0  0  0  0  0  0  0  0  0  0  0  0
    1.9481    0.7702   -1.9595 C   0  0  0  0  0  0  0  0  0  0  0  0
    2.0374   -0.0474   -0.8326 C   0  0  0  0  0  0  0  0  0  0  0  0
    3.2719   -0.2237   -0.0709 C   0  0  0  0  0  0  0  0  0  0  0  0
    4.1878    0.8364    0.0329 C   0  0  0  0  0  0  0  0  0  0  0  0
    5.3809    0.7112    0.7468 C   0  0  0  0  0  0  0  0  0  0  0  0
    5.6761   -0.4791    1.3951 C   0  0  0  0  0  0  0  0  0  0  0  0
    4.8002   -1.5556    1.3276 C   0  0  0  0  0  0  0  0  0  0  0  0
    3.6085   -1.4094    0.5818 C   0  0  0  0  0  0  0  0  0  0  0  0
    6.8722   -0.3028    2.0064 N   0  0  0  0  0  0  0  0  0  0  0  0
    7.3441    0.9338    1.7781 N   0  0  0  0  0  0  0  0  0  0  0  0
    6.4541    1.5521    1.0059 C   0  0  0  0  0  0  0  0  0  0  0  0
    6.6255    2.9511    0.5360 C   0  0  0  0  0  0  0  0  0  0  0  0
    0.8495   -0.6872   -0.4484 C   0  0  0  0  0  0  0  0  0  0  0  0
   -4.0756   -1.4599    0.6633 C   0  0  0  0  0  0  0  0  0  0  0  0
   -4.6191   -0.0659    0.7243 C   0  0  0  0  0  0  0  0  0  0  0  0
   -5.9874    0.1519    0.5336 C   0  0  0  0  0  0  0  0  0  0  0  0
   -6.4937    1.4515    0.5470 C   0  0  0  0  0  0  0  0  0  0  0  0
   -5.6530    2.5323    0.7480 C   0  0  0  0  0  0  0  0  0  0  0  0
   -4.2950    2.3115    0.9339 C   0  0  0  0  0  0  0  0  0  0  0  0
   -3.7737    1.0229    0.9322 C   0  0  0  0  0  0  0  0  0  0  0  0
   -6.3583    4.3013    0.7903 Br  0  0  0  0  0  0  0  0  0  0  0  0
   -3.3896   -3.3394   -0.7342 N   0  0  0  0  0  0  0  0  0  0  0  0
   -4.6643   -1.8124   -1.3850 H   0  0  0  0  0  0  0  0  0  0  0  0
   -2.9123   -0.0232   -1.5000 H   0  0  0  0  0  0  0  0  0  0  0  0
   -2.4922   -1.4500   -2.4596 H   0  0  0  0  0  0  0  0  0  0  0  0
   -1.1870    0.5355   -2.9020 H   0  0  0  0  0  0  0  0  0  0  0  0
    2.8136    1.3079   -2.3363 H   0  0  0  0  0  0  0  0  0  0  0  0
    3.9826    1.7944   -0.4448 H   0  0  0  0  0  0  0  0  0  0  0  0
    5.0097   -2.4959    1.8233 H   0  0  0  0  0  0  0  0  0  0  0  0
    2.9345   -2.2610    0.5133 H   0  0  0  0  0  0  0  0  0  0  0  0
    7.4028   -0.9594    2.5698 H   0  0  0  0  0  0  0  0  0  0  0  0
    6.1101    3.0637   -0.4352 H   0  0  0  0  0  0  0  0  0  0  0  0
    7.6912    3.2053    0.3884 H   0  0  0  0  0  0  0  0  0  0  0  0
    6.1907    3.6488    1.2754 H   0  0  0  0  0  0  0  0  0  0  0  0
    0.8355   -1.3159    0.4319 H   0  0  0  0  0  0  0  0  0  0  0  0
   -3.1987   -1.5427    1.3244 H   0  0  0  0  0  0  0  0  0  0  0  0
   -4.8232   -2.1337    1.1060 H   0  0  0  0  0  0  0  0  0  0  0  0
   -6.6804   -0.6714    0.3649 H   0  0  0  0  0  0  0  0  0  0  0  0
   -7.5548    1.6137    0.3975 H   0  0  0  0  0  0  0  0  0  0  0  0
   -3.6323    3.1558    1.0819 H   0  0  0  0  0  0  0  0  0  0  0  0
   -2.7090    0.8896    1.0777 H   0  0  0  0  0  0  0  0  0  0  0  0
   -3.1000   -3.6830   -1.6657 H   0  0  0  0  0  0  0  0  0  0  0  0
   -4.1899   -3.9109   -0.4388 H   0  0  0  0  0  0  0  0  0  0  0  0
   -2.6273   -3.5037   -0.0564 H   0  0  0  0  0  0  0  0  0  0  0  0
  1  2  1  0
  2  3  1  0
  3  4  1  0
  4  5  2  0
  5  6  1  0
  6  7  2  0
  7  8  1  0
  8  9  1  0
  9 10  2  0
 10 11  1  0
 11 12  2  0
 12 13  1  0
 13 14  2  0
 12 15  1  0
 15 16  1  0
 16 17  2  0
 17 18  1  0
  8 19  2  0
  1 20  1  0
 20 21  1  0
 21 22  2  0
 22 23  1  0
 23 24  2  0
 24 25  1  0
 25 26  2  0
 24 27  1  0
  1 28  1  0
 19  4  1  0
 14  9  1  0
 17 11  1  0
 26 21  1  0
  1 29  1  6
  2 30  1  0
  2 31  1  0
  5 32  1  0
  7 33  1  0
 10 34  1  0
 13 35  1  0
 14 36  1  0
 15 37  1  0
 18 38  1  0
 18 39  1  0
 18 40  1  0
 19 41  1  0
 20 42  1  0
 20 43  1  0
 22 44  1  0
 23 45  1  0
 25 46  1  0
 26 47  1  0
 28 48  1  0
 28 49  1  0
 28 50  1  0
M  CHG  1  28   1
M  END
>  <conformer_id>  (5) 
1

>  <converged>  (5) 
1

>  <energy_abs>  (5) 
125.51980337786145

>  <cluster_no>  (5) 
5

>  <cluster_centroid>  (5) 
1

>  <rms_to_centroid>  (5) 
0.0

>  <energy_delta>  (5) 
-0.61855317254961051

$$$$
