DB04060
     RDKit          3D

 34 35  0  0  0  0  0  0  0  0999 V2000
    1.7596   -1.0004    0.9539 C   0  0  1  0  0  0  0  0  0  0  0  0
    0.2875   -0.9730    0.6678 C   0  0  0  0  0  0  0  0  0  0  0  0
   -0.0048    0.4765    0.7097 C   0  0  1  0  0  0  0  0  0  0  0  0
    1.0684    1.1321   -0.0196 O   0  0  0  0  0  0  0  0  0  0  0  0
    2.2576    0.2102    0.1837 C   0  0  2  0  0  0  0  0  0  0  0  0
    2.7746   -0.1739   -1.1776 C   0  0  0  0  0  0  0  0  0  0  0  0
    3.7800    0.7430   -1.5954 O   0  0  0  0  0  0  0  0  0  0  0  0
    5.3596    0.2338   -1.4676 P   0  0  0  0  0  0  0  0  0  0  0  0
    6.0055    0.5901   -2.7617 O   0  0  0  0  0  0  0  0  0  0  0  0
    5.8404    0.9627   -0.2524 O   0  0  0  0  0  0  0  0  0  0  0  0
    5.2560   -1.2587   -1.2423 O   0  0  0  0  0  0  0  0  0  0  0  0
   -1.3216    0.6713    0.0715 C   0  0  0  0  0  0  0  0  0  0  0  0
   -1.5032    0.5415   -1.2868 C   0  0  0  0  0  0  0  0  0  0  0  0
   -2.7237    0.3369   -1.8682 N   0  0  0  0  0  0  0  0  0  0  0  0
   -3.7991    0.2763   -1.0360 C   0  0  0  0  0  0  0  0  0  0  0  0
   -3.7136    0.4307    0.3398 C   0  0  0  0  0  0  0  0  0  0  0  0
   -4.8785    0.3430    1.2530 C   0  0  0  0  0  0  0  0  0  0  0  0
   -2.4486    0.6730    0.8831 C   0  0  0  0  0  0  0  0  0  0  0  0
   -4.9907    0.0030   -1.6713 O   0  0  0  0  0  0  0  0  0  0  0  0
    1.9261   -0.8206    2.3741 O   0  0  0  0  0  0  0  0  0  0  0  0
    2.2432   -1.9197    0.6308 H   0  0  0  0  0  0  0  0  0  0  0  0
    0.1073   -1.3812   -0.3310 H   0  0  0  0  0  0  0  0  0  0  0  0
   -0.3314   -1.5277    1.4125 H   0  0  0  0  0  0  0  0  0  0  0  0
    0.0091    0.8835    1.7318 H   0  0  0  0  0  0  0  0  0  0  0  0
    2.9520    0.7859    0.7460 H   0  0  0  0  0  0  0  0  0  0  0  0
    1.9946   -0.1416   -1.9132 H   0  0  0  0  0  0  0  0  0  0  0  0
    3.1901   -1.2172   -1.1506 H   0  0  0  0  0  0  0  0  0  0  0  0
   -0.6334    0.5447   -1.9510 H   0  0  0  0  0  0  0  0  0  0  0  0
   -4.6501   -0.3059    2.1023 H   0  0  0  0  0  0  0  0  0  0  0  0
   -5.7697   -0.0328    0.7519 H   0  0  0  0  0  0  0  0  0  0  0  0
   -5.0916    1.3353    1.6430 H   0  0  0  0  0  0  0  0  0  0  0  0
   -2.3257    0.8082    1.9568 H   0  0  0  0  0  0  0  0  0  0  0  0
   -5.4919   -0.6641   -1.1837 H   0  0  0  0  0  0  0  0  0  0  0  0
    2.8659   -0.5650    2.4966 H   0  0  0  0  0  0  0  0  0  0  0  0
  1  2  1  0
  2  3  1  0
  3  4  1  0
  4  5  1  0
  5  6  1  0
  6  7  1  0
  7  8  1  0
  8  9  1  0
  8 10  1  0
  8 11  2  0
  3 12  1  0
 12 13  2  0
 13 14  1  0
 14 15  2  0
 15 16  1  0
 16 17  1  0
 16 18  2  0
 15 19  1  0
  1 20  1  0
  5  1  1  0
 18 12  1  0
  1 21  1  6
  2 22  1  0
  2 23  1  0
  3 24  1  1
  5 25  1  1
  6 26  1  0
  6 27  1  0
 13 28  1  0
 17 29  1  0
 17 30  1  0
 17 31  1  0
 18 32  1  0
 19 33  1  0
 20 34  1  0
M  CHG  2   9  -1  10  -1
M  END
>  <conformer_id>  (1) 
5

>  <converged>  (1) 
1

>  <energy_abs>  (1) 
-13.778932125491465

>  <cluster_no>  (1) 
1

>  <cluster_centroid>  (1) 
5

>  <rms_to_centroid>  (1) 
0.0

>  <energy_delta>  (1) 
11.896330931454585

$$$$
DB04060
     RDKit          3D

 34 35  0  0  0  0  0  0  0  0999 V2000
    1.8729   -1.3087   -0.5916 C   0  0  1  0  0  0  0  0  0  0  0  0
    0.3831   -1.4300   -0.7818 C   0  0  0  0  0  0  0  0  0  0  0  0
   -0.1029   -0.8910    0.5529 C   0  0  1  0  0  0  0  0  0  0  0  0
    0.6888    0.2866    0.7604 O   0  0  0  0  0  0  0  0  0  0  0  0
    2.0532   -0.2107    0.5007 C   0  0  2  0  0  0  0  0  0  0  0  0
    3.0021    0.8958    0.1013 C   0  0  0  0  0  0  0  0  0  0  0  0
    4.2962    0.4200   -0.1190 O   0  0  0  0  0  0  0  0  0  0  0  0
    5.4092    1.5259   -0.5808 P   0  0  0  0  0  0  0  0  0  0  0  0
    4.5889    2.6232   -1.2069 O   0  0  0  0  0  0  0  0  0  0  0  0
    6.3293    0.7349   -1.4713 O   0  0  0  0  0  0  0  0  0  0  0  0
    6.0224    1.9296    0.8138 O   0  0  0  0  0  0  0  0  0  0  0  0
   -1.5676   -0.5543    0.6246 C   0  0  0  0  0  0  0  0  0  0  0  0
   -2.4272   -1.3088    1.4175 C   0  0  0  0  0  0  0  0  0  0  0  0
   -3.7744   -1.1240    1.5286 N   0  0  0  0  0  0  0  0  0  0  0  0
   -4.2412   -0.0943    0.8142 C   0  0  0  0  0  0  0  0  0  0  0  0
   -3.5009    0.7376   -0.0262 C   0  0  0  0  0  0  0  0  0  0  0  0
   -4.1339    1.8604   -0.7851 C   0  0  0  0  0  0  0  0  0  0  0  0
   -2.1503    0.4927   -0.0994 C   0  0  0  0  0  0  0  0  0  0  0  0
   -5.5746    0.1138    0.9169 O   0  0  0  0  0  0  0  0  0  0  0  0
    2.3003   -2.6070   -0.0953 O   0  0  0  0  0  0  0  0  0  0  0  0
    2.3923   -1.0958   -1.5281 H   0  0  0  0  0  0  0  0  0  0  0  0
    0.0128   -2.4445   -0.9428 H   0  0  0  0  0  0  0  0  0  0  0  0
    0.0486   -0.7918   -1.6047 H   0  0  0  0  0  0  0  0  0  0  0  0
    0.1343   -1.5770    1.3789 H   0  0  0  0  0  0  0  0  0  0  0  0
    2.4047   -0.6874    1.4281 H   0  0  0  0  0  0  0  0  0  0  0  0
    3.0106    1.6465    0.8950 H   0  0  0  0  0  0  0  0  0  0  0  0
    2.6055    1.3667   -0.8019 H   0  0  0  0  0  0  0  0  0  0  0  0
   -2.0359   -2.1328    2.0143 H   0  0  0  0  0  0  0  0  0  0  0  0
   -3.7899    1.8335   -1.8205 H   0  0  0  0  0  0  0  0  0  0  0  0
   -5.2139    1.7688   -0.7992 H   0  0  0  0  0  0  0  0  0  0  0  0
   -3.8646    2.8062   -0.3191 H   0  0  0  0  0  0  0  0  0  0  0  0
   -1.4923    1.1181   -0.7299 H   0  0  0  0  0  0  0  0  0  0  0  0
   -5.9084   -0.6901    1.3896 H   0  0  0  0  0  0  0  0  0  0  0  0
    2.2230   -3.2122   -0.8329 H   0  0  0  0  0  0  0  0  0  0  0  0
  1  2  1  0
  2  3  1  0
  3  4  1  0
  4  5  1  0
  5  6  1  0
  6  7  1  0
  7  8  1  0
  8  9  1  0
  8 10  1  0
  8 11  2  0
  3 12  1  0
 12 13  2  0
 13 14  1  0
 14 15  2  0
 15 16  1  0
 16 17  1  0
 16 18  2  0
 15 19  1  0
  1 20  1  0
  5  1  1  0
 18 12  1  0
  1 21  1  6
  2 22  1  0
  2 23  1  0
  3 24  1  1
  5 25  1  1
  6 26  1  0
  6 27  1  0
 13 28  1  0
 17 29  1  0
 17 30  1  0
 17 31  1  0
 18 32  1  0
 19 33  1  0
 20 34  1  0
M  CHG  2   9  -1  10  -1
M  END
>  <conformer_id>  (2) 
4

>  <converged>  (2) 
1

>  <energy_abs>  (2) 
-25.67526305694605

>  <cluster_no>  (2) 
2

>  <cluster_centroid>  (2) 
4

>  <rms_to_centroid>  (2) 
0.0

>  <energy_delta>  (2) 
0

$$$$
DB04060
     RDKit          3D

 34 35  0  0  0  0  0  0  0  0999 V2000
    2.1441   -1.8079    0.1028 C   0  0  1  0  0  0  0  0  0  0  0  0
    0.7510   -1.9230   -0.4841 C   0  0  0  0  0  0  0  0  0  0  0  0
   -0.0799   -1.1253    0.5129 C   0  0  1  0  0  0  0  0  0  0  0  0
    0.7378   -0.0150    0.8627 O   0  0  0  0  0  0  0  0  0  0  0  0
    2.1031   -0.4904    0.9093 C   0  0  2  0  0  0  0  0  0  0  0  0
    3.1140    0.5788    0.4289 C   0  0  0  0  0  0  0  0  0  0  0  0
    3.0039    0.8993   -0.9195 O   0  0  0  0  0  0  0  0  0  0  0  0
    4.0654    2.0223   -1.4467 P   0  0  0  0  0  0  0  0  0  0  0  0
    3.6010    3.3047   -0.7719 O   0  0  0  0  0  0  0  0  0  0  0  0
    3.9390    2.0004   -2.9478 O   0  0  0  0  0  0  0  0  0  0  0  0
    5.3919    1.5185   -0.9142 O   0  0  0  0  0  0  0  0  0  0  0  0
   -1.4298   -0.6711    0.0383 C   0  0  0  0  0  0  0  0  0  0  0  0
   -2.1285   -1.2861   -0.9792 C   0  0  0  0  0  0  0  0  0  0  0  0
   -3.3526   -0.8892   -1.4004 N   0  0  0  0  0  0  0  0  0  0  0  0
   -3.8778    0.1905   -0.7934 C   0  0  0  0  0  0  0  0  0  0  0  0
   -3.2783    0.8956    0.2149 C   0  0  0  0  0  0  0  0  0  0  0  0
   -3.8463    2.1053    0.8827 C   0  0  0  0  0  0  0  0  0  0  0  0
   -2.0355    0.4290    0.6644 C   0  0  0  0  0  0  0  0  0  0  0  0
   -5.1150    0.5186   -1.2705 O   0  0  0  0  0  0  0  0  0  0  0  0
    2.3735   -2.9380    0.9662 O   0  0  0  0  0  0  0  0  0  0  0  0
    2.9167   -1.8281   -0.6712 H   0  0  0  0  0  0  0  0  0  0  0  0
    0.3883   -2.9580   -0.5707 H   0  0  0  0  0  0  0  0  0  0  0  0
    0.7205   -1.4446   -1.4781 H   0  0  0  0  0  0  0  0  0  0  0  0
   -0.2290   -1.7050    1.4367 H   0  0  0  0  0  0  0  0  0  0  0  0
    2.3006   -0.7092    1.9812 H   0  0  0  0  0  0  0  0  0  0  0  0
    2.9716    1.4754    1.0351 H   0  0  0  0  0  0  0  0  0  0  0  0
    4.1088    0.1669    0.6406 H   0  0  0  0  0  0  0  0  0  0  0  0
   -1.7218   -2.1373   -1.5180 H   0  0  0  0  0  0  0  0  0  0  0  0
   -3.0546    2.8182    1.1180 H   0  0  0  0  0  0  0  0  0  0  0  0
   -4.3414    1.8264    1.8181 H   0  0  0  0  0  0  0  0  0  0  0  0
   -4.5565    2.6230    0.2364 H   0  0  0  0  0  0  0  0  0  0  0  0
   -1.5033    0.9473    1.4665 H   0  0  0  0  0  0  0  0  0  0  0  0
   -5.6117    0.8120   -0.5062 H   0  0  0  0  0  0  0  0  0  0  0  0
    1.5308   -3.2039    1.3561 H   0  0  0  0  0  0  0  0  0  0  0  0
  1  2  1  0
  2  3  1  0
  3  4  1  0
  4  5  1  0
  5  6  1  0
  6  7  1  0
  7  8  1  0
  8  9  1  0
  8 10  1  0
  8 11  2  0
  3 12  1  0
 12 13  2  0
 13 14  1  0
 14 15  2  0
 15 16  1  0
 16 17  1  0
 16 18  2  0
 15 19  1  0
  1 20  1  0
  5  1  1  0
 18 12  1  0
  1 21  1  6
  2 22  1  0
  2 23  1  0
  3 24  1  1
  5 25  1  1
  6 26  1  0
  6 27  1  0
 13 28  1  0
 17 29  1  0
 17 30  1  0
 17 31  1  0
 18 32  1  0
 19 33  1  0
 20 34  1  0
M  CHG  2   9  -1  10  -1
M  END
>  <conformer_id>  (3) 
3

>  <converged>  (3) 
1

>  <energy_abs>  (3) 
-15.926155510181133

>  <cluster_no>  (3) 
3

>  <cluster_centroid>  (3) 
3

>  <rms_to_centroid>  (3) 
0.0

>  <energy_delta>  (3) 
9.7491075467649182

$$$$
DB04060
     RDKit          3D

 34 35  0  0  0  0  0  0  0  0999 V2000
    1.8257   -0.6393    1.0592 C   0  0  1  0  0  0  0  0  0  0  0  0
    0.3479   -0.4372    1.3855 C   0  0  0  0  0  0  0  0  0  0  0  0
   -0.1469    0.6523    0.4143 C   0  0  1  0  0  0  0  0  0  0  0  0
    0.7735    0.5802   -0.6797 O   0  0  0  0  0  0  0  0  0  0  0  0
    2.0800    0.3949   -0.0703 C   0  0  2  0  0  0  0  0  0  0  0  0
    3.1260    0.0457   -1.1089 C   0  0  0  0  0  0  0  0  0  0  0  0
    4.3703    0.0674   -0.4351 O   0  0  0  0  0  0  0  0  0  0  0  0
    5.6446   -0.3680   -1.3521 P   0  0  0  0  0  0  0  0  0  0  0  0
    5.0662   -0.6177   -2.7254 O   0  0  0  0  0  0  0  0  0  0  0  0
    6.1126   -1.5855   -0.5694 O   0  0  0  0  0  0  0  0  0  0  0  0
    6.5781    0.8735   -1.2546 O   0  0  0  0  0  0  0  0  0  0  0  0
   -1.5835    0.5994   -0.0103 C   0  0  0  0  0  0  0  0  0  0  0  0
   -2.0120    1.2469   -1.1814 C   0  0  0  0  0  0  0  0  0  0  0  0
   -3.3127    1.2341   -1.6112 N   0  0  0  0  0  0  0  0  0  0  0  0
   -4.1762    0.6424   -0.8232 C   0  0  0  0  0  0  0  0  0  0  0  0
   -3.9109   -0.0346    0.3540 C   0  0  0  0  0  0  0  0  0  0  0  0
   -4.9224   -0.7441    1.1542 C   0  0  0  0  0  0  0  0  0  0  0  0
   -2.5634   -0.0341    0.7605 C   0  0  0  0  0  0  0  0  0  0  0  0
   -5.4474    0.6450   -1.2508 O   0  0  0  0  0  0  0  0  0  0  0  0
    2.5859   -0.5524    2.2639 O   0  0  0  0  0  0  0  0  0  0  0  0
    1.9854   -1.6575    0.7048 H   0  0  0  0  0  0  0  0  0  0  0  0
    0.1511   -0.1893    2.4298 H   0  0  0  0  0  0  0  0  0  0  0  0
   -0.1370   -1.4064    1.1960 H   0  0  0  0  0  0  0  0  0  0  0  0
    0.0078    1.6360    0.9021 H   0  0  0  0  0  0  0  0  0  0  0  0
    2.3659    1.3758    0.3380 H   0  0  0  0  0  0  0  0  0  0  0  0
    3.1498    0.8038   -1.9096 H   0  0  0  0  0  0  0  0  0  0  0  0
    2.9040   -0.9227   -1.5839 H   0  0  0  0  0  0  0  0  0  0  0  0
   -1.3151    1.7982   -1.7957 H   0  0  0  0  0  0  0  0  0  0  0  0
   -4.9679   -0.3187    2.1669 H   0  0  0  0  0  0  0  0  0  0  0  0
   -5.9325   -0.6766    0.7224 H   0  0  0  0  0  0  0  0  0  0  0  0
   -4.6697   -1.8091    1.2289 H   0  0  0  0  0  0  0  0  0  0  0  0
   -2.3147   -0.5300    1.6841 H   0  0  0  0  0  0  0  0  0  0  0  0
   -5.2057    0.5636   -2.3198 H   0  0  0  0  0  0  0  0  0  0  0  0
    3.5431   -0.6361    1.9166 H   0  0  0  0  0  0  0  0  0  0  0  0
  1  2  1  0
  2  3  1  0
  3  4  1  0
  4  5  1  0
  5  6  1  0
  6  7  1  0
  7  8  1  0
  8  9  1  0
  8 10  1  0
  8 11  2  0
  3 12  1  0
 12 13  2  0
 13 14  1  0
 14 15  2  0
 15 16  1  0
 16 17  1  0
 16 18  2  0
 15 19  1  0
  1 20  1  0
  5  1  1  0
 18 12  1  0
  1 21  1  6
  2 22  1  0
  2 23  1  0
  3 24  1  1
  5 25  1  1
  6 26  1  0
  6 27  1  0
 13 28  1  0
 17 29  1  0
 17 30  1  0
 17 31  1  0
 18 32  1  0
 19 33  1  0
 20 34  1  0
M  CHG  2   9  -1  10  -1
M  END
>  <conformer_id>  (4) 
2

>  <converged>  (4) 
1

>  <energy_abs>  (4) 
-23.46188259602103

>  <cluster_no>  (4) 
4

>  <cluster_centroid>  (4) 
2

>  <rms_to_centroid>  (4) 
0.0

>  <energy_delta>  (4) 
2.2133804609250198

$$$$
DB04060
     RDKit          3D

 34 35  0  0  0  0  0  0  0  0999 V2000
    1.7269   -1.7066    0.4469 C   0  0  1  0  0  0  0  0  0  0  0  0
    0.3712   -1.2944    1.0134 C   0  0  0  0  0  0  0  0  0  0  0  0
    0.0585   -0.0343    0.2061 C   0  0  1  0  0  0  0  0  0  0  0  0
    0.9779   -0.0283   -0.8762 O   0  0  0  0  0  0  0  0  0  0  0  0
    2.1768   -0.3992   -0.1785 C   0  0  2  0  0  0  0  0  0  0  0  0
    3.3963   -0.4373   -1.0504 C   0  0  0  0  0  0  0  0  0  0  0  0
    3.5971    0.8788   -1.5254 O   0  0  0  0  0  0  0  0  0  0  0  0
    4.7213    1.7984   -0.7411 P   0  0  0  0  0  0  0  0  0  0  0  0
    5.8554    0.8564   -0.2497 O   0  0  0  0  0  0  0  0  0  0  0  0
    5.1947    2.8935   -1.7333 O   0  0  0  0  0  0  0  0  0  0  0  0
    3.9357    2.4181    0.4289 O   0  0  0  0  0  0  0  0  0  0  0  0
   -1.3670    0.0009   -0.2139 C   0  0  0  0  0  0  0  0  0  0  0  0
   -1.8674   -0.6173   -1.3411 C   0  0  0  0  0  0  0  0  0  0  0  0
   -3.1849   -0.6242   -1.6262 N   0  0  0  0  0  0  0  0  0  0  0  0
   -4.0353   -0.0145   -0.7768 C   0  0  0  0  0  0  0  0  0  0  0  0
   -3.6154    0.6235    0.3763 C   0  0  0  0  0  0  0  0  0  0  0  0
   -4.5343    1.3058    1.3272 C   0  0  0  0  0  0  0  0  0  0  0  0
   -2.2616    0.6423    0.6527 C   0  0  0  0  0  0  0  0  0  0  0  0
   -5.3706   -0.0596   -1.0791 O   0  0  0  0  0  0  0  0  0  0  0  0
    2.5390   -2.2174    1.4765 O   0  0  0  0  0  0  0  0  0  0  0  0
    1.5470   -2.4690   -0.3279 H   0  0  0  0  0  0  0  0  0  0  0  0
   -0.3688   -2.0958    0.8767 H   0  0  0  0  0  0  0  0  0  0  0  0
    0.4403   -1.0361    2.0742 H   0  0  0  0  0  0  0  0  0  0  0  0
    0.2731    0.8721    0.7953 H   0  0  0  0  0  0  0  0  0  0  0  0
    2.3139    0.3634    0.6198 H   0  0  0  0  0  0  0  0  0  0  0  0
    3.2058   -1.0617   -1.9343 H   0  0  0  0  0  0  0  0  0  0  0  0
    4.2439   -0.8140   -0.4955 H   0  0  0  0  0  0  0  0  0  0  0  0
   -1.2012   -1.1308   -2.0282 H   0  0  0  0  0  0  0  0  0  0  0  0
   -5.4498    0.7050    1.4666 H   0  0  0  0  0  0  0  0  0  0  0  0
   -4.0615    1.3925    2.3109 H   0  0  0  0  0  0  0  0  0  0  0  0
   -4.7914    2.3087    0.9444 H   0  0  0  0  0  0  0  0  0  0  0  0
   -1.8932    1.1405    1.5481 H   0  0  0  0  0  0  0  0  0  0  0  0
   -5.6601    0.7796   -1.5003 H   0  0  0  0  0  0  0  0  0  0  0  0
    3.0877   -2.9392    1.1137 H   0  0  0  0  0  0  0  0  0  0  0  0
  1  2  1  0
  2  3  1  0
  3  4  1  0
  4  5  1  0
  5  6  1  0
  6  7  1  0
  7  8  1  0
  8  9  1  0
  8 10  1  0
  8 11  2  0
  3 12  1  0
 12 13  2  0
 13 14  1  0
 14 15  2  0
 15 16  1  0
 16 17  1  0
 16 18  2  0
 15 19  1  0
  1 20  1  0
  5  1  1  0
 18 12  1  0
  1 21  1  6
  2 22  1  0
  2 23  1  0
  3 24  1  1
  5 25  1  1
  6 26  1  0
  6 27  1  0
 13 28  1  0
 17 29  1  0
 17 30  1  0
 17 31  1  0
 18 32  1  0
 19 33  1  0
 20 34  1  0
M  CHG  2   9  -1  10  -1
M  END
>  <conformer_id>  (5) 
1

>  <converged>  (5) 
1

>  <energy_abs>  (5) 
-5.055851598712119

>  <cluster_no>  (5) 
5

>  <cluster_centroid>  (5) 
1

>  <rms_to_centroid>  (5) 
0.0

>  <energy_delta>  (5) 
20.619411458233934

$$$$
