DB11878
     RDKit          3D

 73 77  0  0  0  0  0  0  0  0999 V2000
   -7.5301   -0.8208   -2.4772 C   0  0  0  0  0  0  0  0  0  0  0  0
   -7.0931    0.6286   -2.5105 C   0  0  0  0  0  0  0  0  0  0  0  0
   -6.1284    0.9607   -1.4098 C   0  0  0  0  0  0  0  0  0  0  0  0
   -4.7816    0.7834   -1.6425 C   0  0  0  0  0  0  0  0  0  0  0  0
   -3.8893    1.1043   -0.6316 C   0  0  0  0  0  0  0  0  0  0  0  0
   -2.4325    0.9492   -0.8314 C   0  0  0  0  0  0  0  0  0  0  0  0
   -1.9415   -0.4240   -0.3929 C   0  0  0  0  0  0  0  0  0  0  0  0
   -0.4047   -0.5371   -0.6124 C   0  0  2  0  0  0  0  0  0  0  0  0
    0.0336   -1.9341   -0.1706 C   0  0  0  0  0  0  0  0  0  0  0  0
   -0.2103   -2.3230    1.2784 C   0  0  0  0  0  0  0  0  0  0  0  0
    0.0962   -3.8109    1.2790 C   0  0  0  0  0  0  0  0  0  0  0  0
   -0.1060   -4.2896   -0.1588 C   0  0  0  0  0  0  0  0  0  0  0  0
   -0.6074   -3.0857   -0.9361 C   0  0  0  0  0  0  0  0  0  0  0  0
    0.4016    0.5163    0.1403 C   0  0  0  0  0  0  0  0  0  0  0  0
    1.8793    0.5643   -0.3155 C   0  0  0  0  0  0  0  0  0  0  0  0
    2.6155    0.9849    0.5598 O   0  0  0  0  0  0  0  0  0  0  0  0
    2.1112    0.0994   -1.6030 C   0  0  0  0  0  0  0  0  0  0  0  0
    1.0661   -0.4249   -2.4901 C   0  0  0  0  0  0  0  0  0  0  0  0
   -0.1813   -0.4669   -2.0231 O   0  0  0  0  0  0  0  0  0  0  0  0
    1.2717   -0.8319   -3.6260 O   0  0  0  0  0  0  0  0  0  0  0  0
    3.5116    0.0723   -2.2477 C   0  0  0  0  0  0  0  0  0  0  0  0
    4.6633    0.5839   -1.3815 C   0  0  0  0  0  0  0  0  0  0  0  0
    5.3707   -0.2336   -0.5772 N   0  0  0  0  0  0  0  0  0  0  0  0
    6.2495    0.6003    0.0208 N   0  0  0  0  0  0  0  0  0  0  0  0
    6.1165    1.8589   -0.4805 C   0  0  0  0  0  0  0  0  0  0  0  0
    6.9887    2.8582   -0.0551 N   0  0  0  0  0  0  0  0  0  0  0  0
    7.9189    2.6105    0.8197 C   0  0  0  0  0  0  0  0  0  0  0  0
    8.1155    1.2543    1.3770 C   0  0  0  0  0  0  0  0  0  0  0  0
    7.2822    0.3097    0.9603 C   0  0  0  0  0  0  0  0  0  0  0  0
    7.4058   -1.1049    1.4403 C   0  0  0  0  0  0  0  0  0  0  0  0
    8.8794    3.6945    1.2911 C   0  0  0  0  0  0  0  0  0  0  0  0
    5.1355    1.8827   -1.3852 N   0  0  0  0  0  0  0  0  0  0  0  0
   -4.3878    1.5706    0.5839 C   0  0  0  0  0  0  0  0  0  0  0  0
   -5.7472    1.7230    0.7421 C   0  0  0  0  0  0  0  0  0  0  0  0
   -6.2911    2.2406    2.0507 C   0  0  0  0  0  0  0  0  0  0  0  0
   -6.5965    1.1132    3.0153 C   0  0  0  0  0  0  0  0  0  0  0  0
   -6.6257    1.4201   -0.2293 N   0  0  0  0  0  0  0  0  0  0  0  0
   -8.3289   -0.9778   -1.7390 H   0  0  0  0  0  0  0  0  0  0  0  0
   -7.9320   -1.0931   -3.4630 H   0  0  0  0  0  0  0  0  0  0  0  0
   -6.6871   -1.4872   -2.2740 H   0  0  0  0  0  0  0  0  0  0  0  0
   -6.6228    0.8331   -3.4863 H   0  0  0  0  0  0  0  0  0  0  0  0
   -7.9772    1.2730   -2.4229 H   0  0  0  0  0  0  0  0  0  0  0  0
   -4.4010    0.4131   -2.5834 H   0  0  0  0  0  0  0  0  0  0  0  0
   -1.9624    1.7619   -0.2678 H   0  0  0  0  0  0  0  0  0  0  0  0
   -2.1980    1.0791   -1.8916 H   0  0  0  0  0  0  0  0  0  0  0  0
   -2.2085   -0.6231    0.6595 H   0  0  0  0  0  0  0  0  0  0  0  0
   -2.5377   -1.1714   -0.9865 H   0  0  0  0  0  0  0  0  0  0  0  0
    1.1137   -1.9998   -0.3450 H   0  0  0  0  0  0  0  0  0  0  0  0
   -1.2457   -2.1980    1.6086 H   0  0  0  0  0  0  0  0  0  0  0  0
    0.4314   -1.7730    1.9739 H   0  0  0  0  0  0  0  0  0  0  0  0
   -0.5759   -4.3572    1.9440 H   0  0  0  0  0  0  0  0  0  0  0  0
    1.1420   -3.9311    1.5965 H   0  0  0  0  0  0  0  0  0  0  0  0
    0.8671   -4.5808   -0.5678 H   0  0  0  0  0  0  0  0  0  0  0  0
   -0.8254   -5.1153   -0.2306 H   0  0  0  0  0  0  0  0  0  0  0  0
   -0.2863   -3.0950   -1.9828 H   0  0  0  0  0  0  0  0  0  0  0  0
   -1.6988   -3.0650   -0.8781 H   0  0  0  0  0  0  0  0  0  0  0  0
   -0.0387    1.4962    0.0264 H   0  0  0  0  0  0  0  0  0  0  0  0
    0.3598    0.2331    1.1862 H   0  0  0  0  0  0  0  0  0  0  0  0
    3.7667   -0.9451   -2.5870 H   0  0  0  0  0  0  0  0  0  0  0  0
    3.4536    0.6383   -3.1985 H   0  0  0  0  0  0  0  0  0  0  0  0
    8.9242    1.1033    2.0769 H   0  0  0  0  0  0  0  0  0  0  0  0
    8.4482   -1.4538    1.4479 H   0  0  0  0  0  0  0  0  0  0  0  0
    6.8634   -1.8245    0.8067 H   0  0  0  0  0  0  0  0  0  0  0  0
    7.0210   -1.2389    2.4587 H   0  0  0  0  0  0  0  0  0  0  0  0
    8.4749    4.6880    1.0802 H   0  0  0  0  0  0  0  0  0  0  0  0
    9.8444    3.6230    0.7692 H   0  0  0  0  0  0  0  0  0  0  0  0
    9.0873    3.5966    2.3652 H   0  0  0  0  0  0  0  0  0  0  0  0
   -3.7157    1.8170    1.3918 H   0  0  0  0  0  0  0  0  0  0  0  0
   -7.1780    2.8676    1.8804 H   0  0  0  0  0  0  0  0  0  0  0  0
   -5.5298    2.8848    2.5029 H   0  0  0  0  0  0  0  0  0  0  0  0
   -7.6263    0.7484    2.9069 H   0  0  0  0  0  0  0  0  0  0  0  0
   -5.8862    0.2874    2.8886 H   0  0  0  0  0  0  0  0  0  0  0  0
   -6.4938    1.4892    4.0413 H   0  0  0  0  0  0  0  0  0  0  0  0
  1  2  1  0
  2  3  1  0
  3  4  2  0
  4  5  1  0
  5  6  1  0
  6  7  1  0
  8  7  1  6
  8  9  1  0
  9 10  1  0
 10 11  1  0
 11 12  1  0
 12 13  1  0
  8 14  1  0
 14 15  1  0
 15 16  1  0
 15 17  2  0
 17 18  1  0
 18 19  1  0
 18 20  2  0
 17 21  1  0
 21 22  1  0
 22 23  2  0
 23 24  1  0
 24 25  1  0
 25 26  1  0
 26 27  2  0
 27 28  1  0
 28 29  2  0
 29 30  1  0
 27 31  1  0
 25 32  2  0
  5 33  2  0
 33 34  1  0
 34 35  1  0
 35 36  1  0
 34 37  2  0
 37  3  1  0
 19  8  1  0
 13  9  1  0
 32 22  1  0
 29 24  1  0
  1 38  1  0
  1 39  1  0
  1 40  1  0
  2 41  1  0
  2 42  1  0
  4 43  1  0
  6 44  1  0
  6 45  1  0
  7 46  1  0
  7 47  1  0
  9 48  1  0
 10 49  1  0
 10 50  1  0
 11 51  1  0
 11 52  1  0
 12 53  1  0
 12 54  1  0
 13 55  1  0
 13 56  1  0
 14 57  1  0
 14 58  1  0
 21 59  1  0
 21 60  1  0
 28 61  1  0
 30 62  1  0
 30 63  1  0
 30 64  1  0
 31 65  1  0
 31 66  1  0
 31 67  1  0
 33 68  1  0
 35 69  1  0
 35 70  1  0
 36 71  1  0
 36 72  1  0
 36 73  1  0
M  CHG  1  16  -1
M  END
>  <conformer_id>  (1) 
5

>  <converged>  (1) 
1

>  <energy_abs>  (1) 
146.51970201165395

>  <cluster_no>  (1) 
1

>  <cluster_centroid>  (1) 
5

>  <rms_to_centroid>  (1) 
0.0

>  <energy_delta>  (1) 
7.0258351110804256

$$$$
DB11878
     RDKit          3D

 73 77  0  0  0  0  0  0  0  0999 V2000
   -3.8405    4.5495    1.9472 C   0  0  0  0  0  0  0  0  0  0  0  0
   -4.3904    3.1680    2.2616 C   0  0  0  0  0  0  0  0  0  0  0  0
   -4.1629    2.2786    1.0442 C   0  0  0  0  0  0  0  0  0  0  0  0
   -3.0248    1.6016    0.8943 C   0  0  0  0  0  0  0  0  0  0  0  0
   -2.7992    0.8260   -0.2453 C   0  0  0  0  0  0  0  0  0  0  0  0
   -1.5611    0.0561   -0.4102 C   0  0  0  0  0  0  0  0  0  0  0  0
   -1.7660   -1.3050    0.2130 C   0  0  0  0  0  0  0  0  0  0  0  0
   -0.5011   -2.2003    0.1452 C   0  0  2  0  0  0  0  0  0  0  0  0
   -0.9697   -3.5341    0.8017 C   0  0  0  0  0  0  0  0  0  0  0  0
   -2.1470   -4.1214    0.0059 C   0  0  0  0  0  0  0  0  0  0  0  0
   -1.8745   -5.5900   -0.1557 C   0  0  0  0  0  0  0  0  0  0  0  0
   -0.3697   -5.7558   -0.0368 C   0  0  0  0  0  0  0  0  0  0  0  0
    0.1172   -4.6033    0.8143 C   0  0  0  0  0  0  0  0  0  0  0  0
    0.6135   -1.5625    0.9553 C   0  0  0  0  0  0  0  0  0  0  0  0
    1.6683   -0.7870    0.1292 C   0  0  0  0  0  0  0  0  0  0  0  0
    2.3944   -0.0639    0.8430 O   0  0  0  0  0  0  0  0  0  0  0  0
    1.6790   -0.9877   -1.2239 C   0  0  0  0  0  0  0  0  0  0  0  0
    0.7566   -1.8871   -1.9482 C   0  0  0  0  0  0  0  0  0  0  0  0
   -0.1799   -2.5281   -1.2123 O   0  0  0  0  0  0  0  0  0  0  0  0
    0.8220   -2.0535   -3.1337 O   0  0  0  0  0  0  0  0  0  0  0  0
    2.6922   -0.3060   -2.1252 C   0  0  0  0  0  0  0  0  0  0  0  0
    3.7590    0.6087   -1.4484 C   0  0  0  0  0  0  0  0  0  0  0  0
    4.9082    0.1974   -1.0574 N   0  0  0  0  0  0  0  0  0  0  0  0
    5.5098    1.3135   -0.5404 N   0  0  0  0  0  0  0  0  0  0  0  0
    4.6987    2.4010   -0.7381 C   0  0  0  0  0  0  0  0  0  0  0  0
    5.1109    3.6721   -0.3687 N   0  0  0  0  0  0  0  0  0  0  0  0
    6.3056    3.8450    0.1786 C   0  0  0  0  0  0  0  0  0  0  0  0
    7.1973    2.6735    0.3974 C   0  0  0  0  0  0  0  0  0  0  0  0
    6.7590    1.4620    0.0295 C   0  0  0  0  0  0  0  0  0  0  0  0
    7.6041    0.2332    0.2061 C   0  0  0  0  0  0  0  0  0  0  0  0
    6.8017    5.2088    0.5816 C   0  0  0  0  0  0  0  0  0  0  0  0
    3.5648    2.0110   -1.3510 N   0  0  0  0  0  0  0  0  0  0  0  0
   -3.8414    0.7994   -1.1963 C   0  0  0  0  0  0  0  0  0  0  0  0
   -4.9757    1.5211   -1.0071 C   0  0  0  0  0  0  0  0  0  0  0  0
   -6.0982    1.4852   -2.0322 C   0  0  0  0  0  0  0  0  0  0  0  0
   -7.0889    0.3810   -1.6886 C   0  0  0  0  0  0  0  0  0  0  0  0
   -5.1726    2.2668    0.1055 N   0  0  0  0  0  0  0  0  0  0  0  0
   -4.0312    4.7760    0.8821 H   0  0  0  0  0  0  0  0  0  0  0  0
   -4.3473    5.3030    2.5661 H   0  0  0  0  0  0  0  0  0  0  0  0
   -2.7671    4.6090    2.1617 H   0  0  0  0  0  0  0  0  0  0  0  0
   -5.4586    3.2387    2.4902 H   0  0  0  0  0  0  0  0  0  0  0  0
   -3.8931    2.7337    3.1445 H   0  0  0  0  0  0  0  0  0  0  0  0
   -2.2323    1.6322    1.6662 H   0  0  0  0  0  0  0  0  0  0  0  0
   -1.2843   -0.0198   -1.4725 H   0  0  0  0  0  0  0  0  0  0  0  0
   -0.7535    0.6044    0.0958 H   0  0  0  0  0  0  0  0  0  0  0  0
   -2.6529   -1.7734   -0.2822 H   0  0  0  0  0  0  0  0  0  0  0  0
   -2.0793   -1.1643    1.2656 H   0  0  0  0  0  0  0  0  0  0  0  0
   -1.3071   -3.3144    1.8354 H   0  0  0  0  0  0  0  0  0  0  0  0
   -2.2111   -3.6777   -0.9998 H   0  0  0  0  0  0  0  0  0  0  0  0
   -3.1060   -3.9072    0.5019 H   0  0  0  0  0  0  0  0  0  0  0  0
   -2.2259   -5.9443   -1.1316 H   0  0  0  0  0  0  0  0  0  0  0  0
   -2.4135   -6.1377    0.6175 H   0  0  0  0  0  0  0  0  0  0  0  0
   -0.1570   -6.7244    0.4431 H   0  0  0  0  0  0  0  0  0  0  0  0
    0.1198   -5.7427   -1.0195 H   0  0  0  0  0  0  0  0  0  0  0  0
    0.2386   -4.9581    1.8554 H   0  0  0  0  0  0  0  0  0  0  0  0
    1.1002   -4.2325    0.4964 H   0  0  0  0  0  0  0  0  0  0  0  0
    1.0890   -2.3162    1.5702 H   0  0  0  0  0  0  0  0  0  0  0  0
    0.1646   -0.8507    1.6601 H   0  0  0  0  0  0  0  0  0  0  0  0
    3.2885   -1.1153   -2.5980 H   0  0  0  0  0  0  0  0  0  0  0  0
    2.2032    0.1925   -2.9569 H   0  0  0  0  0  0  0  0  0  0  0  0
    8.1509    2.8392    0.8281 H   0  0  0  0  0  0  0  0  0  0  0  0
    8.6685    0.5225    0.1229 H   0  0  0  0  0  0  0  0  0  0  0  0
    7.4784   -0.1804    1.2257 H   0  0  0  0  0  0  0  0  0  0  0  0
    7.4049   -0.5714   -0.5215 H   0  0  0  0  0  0  0  0  0  0  0  0
    7.8992    5.2117    0.5672 H   0  0  0  0  0  0  0  0  0  0  0  0
    6.4809    5.9889   -0.1422 H   0  0  0  0  0  0  0  0  0  0  0  0
    6.4213    5.4992    1.5677 H   0  0  0  0  0  0  0  0  0  0  0  0
   -3.7111    0.1878   -2.0749 H   0  0  0  0  0  0  0  0  0  0  0  0
   -6.6076    2.4602   -2.0858 H   0  0  0  0  0  0  0  0  0  0  0  0
   -5.6581    1.2519   -3.0218 H   0  0  0  0  0  0  0  0  0  0  0  0
   -8.0397    0.5779   -2.2014 H   0  0  0  0  0  0  0  0  0  0  0  0
   -7.2783    0.3280   -0.6106 H   0  0  0  0  0  0  0  0  0  0  0  0
   -6.6923   -0.6001   -2.0009 H   0  0  0  0  0  0  0  0  0  0  0  0
  1  2  1  0
  2  3  1  0
  3  4  2  0
  4  5  1  0
  5  6  1  0
  6  7  1  0
  8  7  1  6
  8  9  1  0
  9 10  1  0
 10 11  1  0
 11 12  1  0
 12 13  1  0
  8 14  1  0
 14 15  1  0
 15 16  1  0
 15 17  2  0
 17 18  1  0
 18 19  1  0
 18 20  2  0
 17 21  1  0
 21 22  1  0
 22 23  2  0
 23 24  1  0
 24 25  1  0
 25 26  1  0
 26 27  2  0
 27 28  1  0
 28 29  2  0
 29 30  1  0
 27 31  1  0
 25 32  2  0
  5 33  2  0
 33 34  1  0
 34 35  1  0
 35 36  1  0
 34 37  2  0
 37  3  1  0
 19  8  1  0
 13  9  1  0
 32 22  1  0
 29 24  1  0
  1 38  1  0
  1 39  1  0
  1 40  1  0
  2 41  1  0
  2 42  1  0
  4 43  1  0
  6 44  1  0
  6 45  1  0
  7 46  1  0
  7 47  1  0
  9 48  1  0
 10 49  1  0
 10 50  1  0
 11 51  1  0
 11 52  1  0
 12 53  1  0
 12 54  1  0
 13 55  1  0
 13 56  1  0
 14 57  1  0
 14 58  1  0
 21 59  1  0
 21 60  1  0
 28 61  1  0
 30 62  1  0
 30 63  1  0
 30 64  1  0
 31 65  1  0
 31 66  1  0
 31 67  1  0
 33 68  1  0
 35 69  1  0
 35 70  1  0
 36 71  1  0
 36 72  1  0
 36 73  1  0
M  CHG  1  16  -1
M  END
>  <conformer_id>  (2) 
4

>  <converged>  (2) 
1

>  <energy_abs>  (2) 
157.3590779418729

>  <cluster_no>  (2) 
2

>  <cluster_centroid>  (2) 
4

>  <rms_to_centroid>  (2) 
0.0

>  <energy_delta>  (2) 
17.865211041299375

$$$$
DB11878
     RDKit          3D

 73 77  0  0  0  0  0  0  0  0999 V2000
   -5.1297    4.2856   -1.7012 C   0  0  0  0  0  0  0  0  0  0  0  0
   -4.0517    4.0037   -0.6625 C   0  0  0  0  0  0  0  0  0  0  0  0
   -3.9573    2.5106   -0.4333 C   0  0  0  0  0  0  0  0  0  0  0  0
   -3.1710    1.7088   -1.2462 C   0  0  0  0  0  0  0  0  0  0  0  0
   -3.1709    0.3331   -1.0524 C   0  0  0  0  0  0  0  0  0  0  0  0
   -2.4054   -0.5880   -1.9515 C   0  0  0  0  0  0  0  0  0  0  0  0
   -0.9340   -0.8308   -1.6162 C   0  0  0  0  0  0  0  0  0  0  0  0
   -0.4977   -1.4812   -0.2992 C   0  0  2  0  0  0  0  0  0  0  0  0
   -1.1420   -2.8441   -0.0254 C   0  0  0  0  0  0  0  0  0  0  0  0
   -0.7247   -3.5015    1.3092 C   0  0  0  0  0  0  0  0  0  0  0  0
   -1.0409   -4.9809    1.1232 C   0  0  0  0  0  0  0  0  0  0  0  0
   -0.6752   -5.2621   -0.3252 C   0  0  0  0  0  0  0  0  0  0  0  0
   -0.7873   -3.9281   -1.0708 C   0  0  0  0  0  0  0  0  0  0  0  0
   -0.6611   -0.5009    0.8749 C   0  0  0  0  0  0  0  0  0  0  0  0
    0.5671   -0.2012    1.6928 C   0  0  0  0  0  0  0  0  0  0  0  0
    0.3228    0.5357    2.7201 O   0  0  0  0  0  0  0  0  0  0  0  0
    1.7973   -0.6456    1.3365 C   0  0  0  0  0  0  0  0  0  0  0  0
    1.9595   -1.5242    0.1723 C   0  0  0  0  0  0  0  0  0  0  0  0
    0.8886   -1.7757   -0.5999 O   0  0  0  0  0  0  0  0  0  0  0  0
    3.0604   -2.0235   -0.0981 O   0  0  0  0  0  0  0  0  0  0  0  0
    3.0308   -0.2952    2.1201 C   0  0  0  0  0  0  0  0  0  0  0  0
    3.9999    0.5273    1.3127 C   0  0  0  0  0  0  0  0  0  0  0  0
    5.1174    0.0212    0.7883 N   0  0  0  0  0  0  0  0  0  0  0  0
    5.6605    1.0583    0.1352 N   0  0  0  0  0  0  0  0  0  0  0  0
    4.9206    2.1947    0.3767 C   0  0  0  0  0  0  0  0  0  0  0  0
    5.3058    3.4162   -0.1282 N   0  0  0  0  0  0  0  0  0  0  0  0
    6.3746    3.4565   -0.8451 C   0  0  0  0  0  0  0  0  0  0  0  0
    7.1975    2.2655   -1.1727 C   0  0  0  0  0  0  0  0  0  0  0  0
    6.8020    1.0948   -0.6566 C   0  0  0  0  0  0  0  0  0  0  0  0
    7.5675   -0.1673   -0.8980 C   0  0  0  0  0  0  0  0  0  0  0  0
    6.8489    4.7670   -1.3992 C   0  0  0  0  0  0  0  0  0  0  0  0
    3.8982    1.8613    1.1215 N   0  0  0  0  0  0  0  0  0  0  0  0
   -3.9498   -0.1853   -0.0280 C   0  0  0  0  0  0  0  0  0  0  0  0
   -4.7049    0.6633    0.7570 C   0  0  0  0  0  0  0  0  0  0  0  0
   -5.5902    0.0853    1.8354 C   0  0  0  0  0  0  0  0  0  0  0  0
   -6.9435   -0.2676    1.2238 C   0  0  0  0  0  0  0  0  0  0  0  0
   -4.7288    1.9967    0.5516 N   0  0  0  0  0  0  0  0  0  0  0  0
   -5.2678    5.3702   -1.8258 H   0  0  0  0  0  0  0  0  0  0  0  0
   -6.0897    3.8369   -1.3954 H   0  0  0  0  0  0  0  0  0  0  0  0
   -4.8566    3.8531   -2.6720 H   0  0  0  0  0  0  0  0  0  0  0  0
   -4.2911    4.5096    0.2736 H   0  0  0  0  0  0  0  0  0  0  0  0
   -3.0786    4.3935   -0.9953 H   0  0  0  0  0  0  0  0  0  0  0  0
   -2.5860    2.1615   -2.0221 H   0  0  0  0  0  0  0  0  0  0  0  0
   -2.9416   -1.5295   -2.0769 H   0  0  0  0  0  0  0  0  0  0  0  0
   -2.4274   -0.1384   -2.9645 H   0  0  0  0  0  0  0  0  0  0  0  0
   -0.3958    0.1213   -1.7265 H   0  0  0  0  0  0  0  0  0  0  0  0
   -0.5423   -1.4483   -2.4459 H   0  0  0  0  0  0  0  0  0  0  0  0
   -2.2319   -2.7534   -0.0073 H   0  0  0  0  0  0  0  0  0  0  0  0
   -1.2733   -3.0913    2.1655 H   0  0  0  0  0  0  0  0  0  0  0  0
    0.3515   -3.3761    1.4927 H   0  0  0  0  0  0  0  0  0  0  0  0
   -2.1100   -5.1782    1.2949 H   0  0  0  0  0  0  0  0  0  0  0  0
   -0.4672   -5.6038    1.8234 H   0  0  0  0  0  0  0  0  0  0  0  0
   -1.3152   -6.0335   -0.7568 H   0  0  0  0  0  0  0  0  0  0  0  0
    0.3553   -5.6352   -0.3844 H   0  0  0  0  0  0  0  0  0  0  0  0
    0.1750   -3.7398   -1.5594 H   0  0  0  0  0  0  0  0  0  0  0  0
   -1.5419   -3.9847   -1.8620 H   0  0  0  0  0  0  0  0  0  0  0  0
   -1.4720   -0.8533    1.5398 H   0  0  0  0  0  0  0  0  0  0  0  0
   -1.0082    0.4701    0.4945 H   0  0  0  0  0  0  0  0  0  0  0  0
    3.5186   -1.2143    2.4602 H   0  0  0  0  0  0  0  0  0  0  0  0
    2.7774    0.3034    3.0147 H   0  0  0  0  0  0  0  0  0  0  0  0
    8.0713    2.3886   -1.7736 H   0  0  0  0  0  0  0  0  0  0  0  0
    8.4435   -0.2102   -0.2374 H   0  0  0  0  0  0  0  0  0  0  0  0
    7.9250   -0.2184   -1.9394 H   0  0  0  0  0  0  0  0  0  0  0  0
    6.9706   -1.0713   -0.7257 H   0  0  0  0  0  0  0  0  0  0  0  0
    6.8309    4.7142   -2.4952 H   0  0  0  0  0  0  0  0  0  0  0  0
    6.2138    5.5982   -1.0529 H   0  0  0  0  0  0  0  0  0  0  0  0
    7.8774    4.9348   -1.0599 H   0  0  0  0  0  0  0  0  0  0  0  0
   -3.9698   -1.2464    0.1650 H   0  0  0  0  0  0  0  0  0  0  0  0
   -5.7043    0.8066    2.6527 H   0  0  0  0  0  0  0  0  0  0  0  0
   -5.1220   -0.8244    2.2408 H   0  0  0  0  0  0  0  0  0  0  0  0
   -6.8624   -1.1697    0.5934 H   0  0  0  0  0  0  0  0  0  0  0  0
   -7.6753   -0.4664    2.0163 H   0  0  0  0  0  0  0  0  0  0  0  0
   -7.3328    0.5424    0.5874 H   0  0  0  0  0  0  0  0  0  0  0  0
  1  2  1  0
  2  3  1  0
  3  4  2  0
  4  5  1  0
  5  6  1  0
  6  7  1  0
  8  7  1  6
  8  9  1  0
  9 10  1  0
 10 11  1  0
 11 12  1  0
 12 13  1  0
  8 14  1  0
 14 15  1  0
 15 16  1  0
 15 17  2  0
 17 18  1  0
 18 19  1  0
 18 20  2  0
 17 21  1  0
 21 22  1  0
 22 23  2  0
 23 24  1  0
 24 25  1  0
 25 26  1  0
 26 27  2  0
 27 28  1  0
 28 29  2  0
 29 30  1  0
 27 31  1  0
 25 32  2  0
  5 33  2  0
 33 34  1  0
 34 35  1  0
 35 36  1  0
 34 37  2  0
 37  3  1  0
 19  8  1  0
 13  9  1  0
 32 22  1  0
 29 24  1  0
  1 38  1  0
  1 39  1  0
  1 40  1  0
  2 41  1  0
  2 42  1  0
  4 43  1  0
  6 44  1  0
  6 45  1  0
  7 46  1  0
  7 47  1  0
  9 48  1  0
 10 49  1  0
 10 50  1  0
 11 51  1  0
 11 52  1  0
 12 53  1  0
 12 54  1  0
 13 55  1  0
 13 56  1  0
 14 57  1  0
 14 58  1  0
 21 59  1  0
 21 60  1  0
 28 61  1  0
 30 62  1  0
 30 63  1  0
 30 64  1  0
 31 65  1  0
 31 66  1  0
 31 67  1  0
 33 68  1  0
 35 69  1  0
 35 70  1  0
 36 71  1  0
 36 72  1  0
 36 73  1  0
M  CHG  1  16  -1
M  END
>  <conformer_id>  (3) 
3

>  <converged>  (3) 
1

>  <energy_abs>  (3) 
139.49386690057352

>  <cluster_no>  (3) 
3

>  <cluster_centroid>  (3) 
3

>  <rms_to_centroid>  (3) 
0.0

>  <energy_delta>  (3) 
0

$$$$
DB11878
     RDKit          3D

 73 77  0  0  0  0  0  0  0  0999 V2000
   -4.8507    3.8659   -2.7978 C   0  0  0  0  0  0  0  0  0  0  0  0
   -3.7837    3.6670   -1.7194 C   0  0  0  0  0  0  0  0  0  0  0  0
   -3.8257    2.2662   -1.1492 C   0  0  0  0  0  0  0  0  0  0  0  0
   -3.0864    1.2400   -1.7505 C   0  0  0  0  0  0  0  0  0  0  0  0
   -3.1489   -0.0477   -1.2393 C   0  0  0  0  0  0  0  0  0  0  0  0
   -2.4378   -1.1828   -1.9257 C   0  0  0  0  0  0  0  0  0  0  0  0
   -0.9517   -1.4414   -1.5872 C   0  0  0  0  0  0  0  0  0  0  0  0
   -0.4470   -1.7616   -0.1488 C   0  0  2  0  0  0  0  0  0  0  0  0
   -1.1192   -2.9814    0.4964 C   0  0  0  0  0  0  0  0  0  0  0  0
   -0.5280   -3.3054    1.8807 C   0  0  0  0  0  0  0  0  0  0  0  0
   -1.1385   -4.6504    2.1389 C   0  0  0  0  0  0  0  0  0  0  0  0
   -0.7602   -5.3954    0.8722 C   0  0  0  0  0  0  0  0  0  0  0  0
   -0.9694   -4.3465   -0.2379 C   0  0  0  0  0  0  0  0  0  0  0  0
   -0.6093   -0.5298    0.7957 C   0  0  0  0  0  0  0  0  0  0  0  0
    0.6121   -0.0712    1.5806 C   0  0  0  0  0  0  0  0  0  0  0  0
    0.3407    0.8004    2.4107 O   0  0  0  0  0  0  0  0  0  0  0  0
    1.8174   -0.6678    1.2812 C   0  0  0  0  0  0  0  0  0  0  0  0
    2.0227   -1.7356    0.3036 C   0  0  0  0  0  0  0  0  0  0  0  0
    0.9317   -2.1544   -0.3925 O   0  0  0  0  0  0  0  0  0  0  0  0
    3.0976   -2.2850    0.0865 O   0  0  0  0  0  0  0  0  0  0  0  0
    3.0201   -0.1945    2.0762 C   0  0  0  0  0  0  0  0  0  0  0  0
    4.0919    0.4600    1.2181 C   0  0  0  0  0  0  0  0  0  0  0  0
    4.0446    1.7711    0.8546 N   0  0  0  0  0  0  0  0  0  0  0  0
    5.1528    1.9241    0.1356 N   0  0  0  0  0  0  0  0  0  0  0  0
    5.8727    0.7357    0.0717 C   0  0  0  0  0  0  0  0  0  0  0  0
    7.0720    0.6777   -0.6186 N   0  0  0  0  0  0  0  0  0  0  0  0
    7.5172    1.7348   -1.1887 C   0  0  0  0  0  0  0  0  0  0  0  0
    6.7971    3.0605   -1.1734 C   0  0  0  0  0  0  0  0  0  0  0  0
    5.6486    3.0950   -0.5064 C   0  0  0  0  0  0  0  0  0  0  0  0
    4.8131    4.3528   -0.3896 C   0  0  0  0  0  0  0  0  0  0  0  0
    8.8463    1.6732   -1.9380 C   0  0  0  0  0  0  0  0  0  0  0  0
    5.2224   -0.1757    0.7614 N   0  0  0  0  0  0  0  0  0  0  0  0
   -3.9296   -0.2912   -0.1159 C   0  0  0  0  0  0  0  0  0  0  0  0
   -4.6400    0.7852    0.4460 C   0  0  0  0  0  0  0  0  0  0  0  0
   -5.5045    0.5277    1.6548 C   0  0  0  0  0  0  0  0  0  0  0  0
   -6.9150    0.1417    1.2277 C   0  0  0  0  0  0  0  0  0  0  0  0
   -4.6123    2.0244   -0.0776 N   0  0  0  0  0  0  0  0  0  0  0  0
   -5.7352    4.3376   -2.3552 H   0  0  0  0  0  0  0  0  0  0  0  0
   -5.1657    2.9133   -3.2359 H   0  0  0  0  0  0  0  0  0  0  0  0
   -4.4830    4.5316   -3.5914 H   0  0  0  0  0  0  0  0  0  0  0  0
   -3.9471    4.3919   -0.9141 H   0  0  0  0  0  0  0  0  0  0  0  0
   -2.7847    3.8761   -2.1301 H   0  0  0  0  0  0  0  0  0  0  0  0
   -2.4793    1.4665   -2.5993 H   0  0  0  0  0  0  0  0  0  0  0  0
   -3.0260   -2.0926   -1.8580 H   0  0  0  0  0  0  0  0  0  0  0  0
   -2.4384   -0.9179   -2.9940 H   0  0  0  0  0  0  0  0  0  0  0  0
   -0.6329   -2.2530   -2.2530 H   0  0  0  0  0  0  0  0  0  0  0  0
   -0.3822   -0.5691   -1.9100 H   0  0  0  0  0  0  0  0  0  0  0  0
   -2.1904   -2.7989    0.6395 H   0  0  0  0  0  0  0  0  0  0  0  0
    0.5661   -3.4069    1.8488 H   0  0  0  0  0  0  0  0  0  0  0  0
   -0.8129   -2.5812    2.6562 H   0  0  0  0  0  0  0  0  0  0  0  0
   -0.7617   -5.1196    3.0575 H   0  0  0  0  0  0  0  0  0  0  0  0
   -2.2356   -4.5420    2.1901 H   0  0  0  0  0  0  0  0  0  0  0  0
    0.2996   -5.6956    0.9129 H   0  0  0  0  0  0  0  0  0  0  0  0
   -1.3667   -6.2845    0.7109 H   0  0  0  0  0  0  0  0  0  0  0  0
   -1.8886   -4.5622   -0.7744 H   0  0  0  0  0  0  0  0  0  0  0  0
   -0.1268   -4.3640   -0.9407 H   0  0  0  0  0  0  0  0  0  0  0  0
   -1.4254   -0.7675    1.5027 H   0  0  0  0  0  0  0  0  0  0  0  0
   -0.9601    0.3100    0.2052 H   0  0  0  0  0  0  0  0  0  0  0  0
    3.4631   -1.0262    2.6402 H   0  0  0  0  0  0  0  0  0  0  0  0
    2.6711    0.5383    2.8269 H   0  0  0  0  0  0  0  0  0  0  0  0
    7.2264    3.8958   -1.6722 H   0  0  0  0  0  0  0  0  0  0  0  0
    5.3055    5.0650    0.2855 H   0  0  0  0  0  0  0  0  0  0  0  0
    3.7855    4.1810   -0.0170 H   0  0  0  0  0  0  0  0  0  0  0  0
    4.7298    4.8388   -1.3680 H   0  0  0  0  0  0  0  0  0  0  0  0
    9.5483    0.9802   -1.4463 H   0  0  0  0  0  0  0  0  0  0  0  0
    9.2879    2.6726   -1.9415 H   0  0  0  0  0  0  0  0  0  0  0  0
    8.6717    1.3626   -2.9795 H   0  0  0  0  0  0  0  0  0  0  0  0
   -4.0012   -1.2480    0.3318 H   0  0  0  0  0  0  0  0  0  0  0  0
   -5.0818   -0.2749    2.2682 H   0  0  0  0  0  0  0  0  0  0  0  0
   -5.5165    1.4351    2.2794 H   0  0  0  0  0  0  0  0  0  0  0  0
   -6.8741   -0.6398    0.4530 H   0  0  0  0  0  0  0  0  0  0  0  0
   -7.4373    1.0177    0.8233 H   0  0  0  0  0  0  0  0  0  0  0  0
   -7.4643   -0.2559    2.0912 H   0  0  0  0  0  0  0  0  0  0  0  0
  1  2  1  0
  2  3  1  0
  3  4  2  0
  4  5  1  0
  5  6  1  0
  6  7  1  0
  8  7  1  6
  8  9  1  0
  9 10  1  0
 10 11  1  0
 11 12  1  0
 12 13  1  0
  8 14  1  0
 14 15  1  0
 15 16  1  0
 15 17  2  0
 17 18  1  0
 18 19  1  0
 18 20  2  0
 17 21  1  0
 21 22  1  0
 22 23  2  0
 23 24  1  0
 24 25  1  0
 25 26  1  0
 26 27  2  0
 27 28  1  0
 28 29  2  0
 29 30  1  0
 27 31  1  0
 25 32  2  0
  5 33  2  0
 33 34  1  0
 34 35  1  0
 35 36  1  0
 34 37  2  0
 37  3  1  0
 19  8  1  0
 13  9  1  0
 32 22  1  0
 29 24  1  0
  1 38  1  0
  1 39  1  0
  1 40  1  0
  2 41  1  0
  2 42  1  0
  4 43  1  0
  6 44  1  0
  6 45  1  0
  7 46  1  0
  7 47  1  0
  9 48  1  0
 10 49  1  0
 10 50  1  0
 11 51  1  0
 11 52  1  0
 12 53  1  0
 12 54  1  0
 13 55  1  0
 13 56  1  0
 14 57  1  0
 14 58  1  0
 21 59  1  0
 21 60  1  0
 28 61  1  0
 30 62  1  0
 30 63  1  0
 30 64  1  0
 31 65  1  0
 31 66  1  0
 31 67  1  0
 33 68  1  0
 35 69  1  0
 35 70  1  0
 36 71  1  0
 36 72  1  0
 36 73  1  0
M  CHG  1  16  -1
M  END
>  <conformer_id>  (4) 
2

>  <converged>  (4) 
1

>  <energy_abs>  (4) 
147.023728999397

>  <cluster_no>  (4) 
4

>  <cluster_centroid>  (4) 
2

>  <rms_to_centroid>  (4) 
0.0

>  <energy_delta>  (4) 
7.5298620988234859

$$$$
DB11878
     RDKit          3D

 73 77  0  0  0  0  0  0  0  0999 V2000
   -6.0107    0.8149   -3.4002 C   0  0  0  0  0  0  0  0  0  0  0  0
   -6.6361    0.0954   -2.2185 C   0  0  0  0  0  0  0  0  0  0  0  0
   -5.8016    0.4121   -0.9951 C   0  0  0  0  0  0  0  0  0  0  0  0
   -4.7546   -0.3988   -0.6830 C   0  0  0  0  0  0  0  0  0  0  0  0
   -3.9588   -0.1152    0.4423 C   0  0  0  0  0  0  0  0  0  0  0  0
   -2.8202   -1.0044    0.7961 C   0  0  0  0  0  0  0  0  0  0  0  0
   -1.5740   -0.4798    0.0915 C   0  0  0  0  0  0  0  0  0  0  0  0
   -0.2199   -1.1605    0.3931 C   0  0  2  0  0  0  0  0  0  0  0  0
   -0.1572   -2.6314    0.0299 C   0  0  0  0  0  0  0  0  0  0  0  0
   -0.9227   -3.6438    0.8804 C   0  0  0  0  0  0  0  0  0  0  0  0
   -1.5583   -4.6147   -0.1082 C   0  0  0  0  0  0  0  0  0  0  0  0
   -0.7202   -4.4031   -1.3615 C   0  0  0  0  0  0  0  0  0  0  0  0
   -0.6086   -2.8979   -1.4033 C   0  0  0  0  0  0  0  0  0  0  0  0
    0.2090   -0.9212    1.8166 C   0  0  0  0  0  0  0  0  0  0  0  0
    1.7454   -1.2263    2.0304 C   0  0  0  0  0  0  0  0  0  0  0  0
    2.0759   -1.5740    3.1580 O   0  0  0  0  0  0  0  0  0  0  0  0
    2.5385   -1.1094    0.9308 C   0  0  0  0  0  0  0  0  0  0  0  0
    2.0525   -0.7298   -0.4007 C   0  0  0  0  0  0  0  0  0  0  0  0
    0.7171   -0.4991   -0.5084 O   0  0  0  0  0  0  0  0  0  0  0  0
    2.7627   -0.6305   -1.3795 O   0  0  0  0  0  0  0  0  0  0  0  0
    4.0091   -1.4213    1.1630 C   0  0  0  0  0  0  0  0  0  0  0  0
    4.9321   -0.2393    0.8524 C   0  0  0  0  0  0  0  0  0  0  0  0
    5.4905   -0.0866   -0.3305 N   0  0  0  0  0  0  0  0  0  0  0  0
    6.2339    1.0436   -0.2246 N   0  0  0  0  0  0  0  0  0  0  0  0
    6.1251    1.5395    1.0115 C   0  0  0  0  0  0  0  0  0  0  0  0
    6.8229    2.6973    1.3606 N   0  0  0  0  0  0  0  0  0  0  0  0
    7.5747    3.2922    0.5044 C   0  0  0  0  0  0  0  0  0  0  0  0
    7.7205    2.7870   -0.8778 C   0  0  0  0  0  0  0  0  0  0  0  0
    7.0507    1.6795   -1.1973 C   0  0  0  0  0  0  0  0  0  0  0  0
    7.1366    1.1068   -2.5682 C   0  0  0  0  0  0  0  0  0  0  0  0
    8.3598    4.5615    0.8363 C   0  0  0  0  0  0  0  0  0  0  0  0
    5.2987    0.7462    1.7309 N   0  0  0  0  0  0  0  0  0  0  0  0
   -4.2686    1.0202    1.1820 C   0  0  0  0  0  0  0  0  0  0  0  0
   -5.3111    1.7952    0.8195 C   0  0  0  0  0  0  0  0  0  0  0  0
   -5.6594    3.0343    1.6332 C   0  0  0  0  0  0  0  0  0  0  0  0
   -6.8550    3.7232    1.0232 C   0  0  0  0  0  0  0  0  0  0  0  0
   -6.0926    1.5088   -0.2718 N   0  0  0  0  0  0  0  0  0  0  0  0
   -6.8036    1.0638   -4.1117 H   0  0  0  0  0  0  0  0  0  0  0  0
   -5.5281    1.7564   -3.0860 H   0  0  0  0  0  0  0  0  0  0  0  0
   -5.2523    0.1795   -3.8944 H   0  0  0  0  0  0  0  0  0  0  0  0
   -6.6000   -0.9864   -2.4103 H   0  0  0  0  0  0  0  0  0  0  0  0
   -7.6904    0.3796   -2.0786 H   0  0  0  0  0  0  0  0  0  0  0  0
   -4.5424   -1.2618   -1.3027 H   0  0  0  0  0  0  0  0  0  0  0  0
   -2.7462   -1.0325    1.8885 H   0  0  0  0  0  0  0  0  0  0  0  0
   -3.1022   -1.9988    0.4185 H   0  0  0  0  0  0  0  0  0  0  0  0
   -1.4878    0.6041    0.3013 H   0  0  0  0  0  0  0  0  0  0  0  0
   -1.7796   -0.5113   -1.0043 H   0  0  0  0  0  0  0  0  0  0  0  0
    0.8975   -2.9443    0.0789 H   0  0  0  0  0  0  0  0  0  0  0  0
   -1.6197   -3.2327    1.6082 H   0  0  0  0  0  0  0  0  0  0  0  0
   -0.2068   -4.2470    1.4725 H   0  0  0  0  0  0  0  0  0  0  0  0
   -2.6173   -4.3811   -0.2833 H   0  0  0  0  0  0  0  0  0  0  0  0
   -1.4686   -5.6544    0.2295 H   0  0  0  0  0  0  0  0  0  0  0  0
   -1.1756   -4.8149   -2.2636 H   0  0  0  0  0  0  0  0  0  0  0  0
    0.2843   -4.8142   -1.1664 H   0  0  0  0  0  0  0  0  0  0  0  0
   -1.6020   -2.4613   -1.5789 H   0  0  0  0  0  0  0  0  0  0  0  0
    0.1602   -2.5245   -2.0852 H   0  0  0  0  0  0  0  0  0  0  0  0
   -0.3232   -1.5705    2.4995 H   0  0  0  0  0  0  0  0  0  0  0  0
    0.0259    0.1270    2.0184 H   0  0  0  0  0  0  0  0  0  0  0  0
    4.3222   -2.3266    0.6071 H   0  0  0  0  0  0  0  0  0  0  0  0
    4.1676   -1.6720    2.2252 H   0  0  0  0  0  0  0  0  0  0  0  0
    8.3576    3.3356   -1.5378 H   0  0  0  0  0  0  0  0  0  0  0  0
    7.0834    1.9003   -3.3325 H   0  0  0  0  0  0  0  0  0  0  0  0
    8.0736    0.5432   -2.7077 H   0  0  0  0  0  0  0  0  0  0  0  0
    6.3003    0.4212   -2.7872 H   0  0  0  0  0  0  0  0  0  0  0  0
    9.3400    4.5405    0.3307 H   0  0  0  0  0  0  0  0  0  0  0  0
    8.5563    4.6317    1.9125 H   0  0  0  0  0  0  0  0  0  0  0  0
    7.8142    5.4385    0.4545 H   0  0  0  0  0  0  0  0  0  0  0  0
   -3.6785    1.2959    2.0566 H   0  0  0  0  0  0  0  0  0  0  0  0
   -5.8803    2.7727    2.6743 H   0  0  0  0  0  0  0  0  0  0  0  0
   -4.8046    3.7237    1.6244 H   0  0  0  0  0  0  0  0  0  0  0  0
   -7.6045    2.9675    0.7395 H   0  0  0  0  0  0  0  0  0  0  0  0
   -7.2837    4.4635    1.7145 H   0  0  0  0  0  0  0  0  0  0  0  0
   -6.5116    4.2188    0.0967 H   0  0  0  0  0  0  0  0  0  0  0  0
  1  2  1  0
  2  3  1  0
  3  4  2  0
  4  5  1  0
  5  6  1  0
  6  7  1  0
  8  7  1  1
  8  9  1  0
  9 10  1  0
 10 11  1  0
 11 12  1  0
 12 13  1  0
  8 14  1  0
 14 15  1  0
 15 16  1  0
 15 17  2  0
 17 18  1  0
 18 19  1  0
 18 20  2  0
 17 21  1  0
 21 22  1  0
 22 23  2  0
 23 24  1  0
 24 25  1  0
 25 26  1  0
 26 27  2  0
 27 28  1  0
 28 29  2  0
 29 30  1  0
 27 31  1  0
 25 32  2  0
  5 33  2  0
 33 34  1  0
 34 35  1  0
 35 36  1  0
 34 37  2  0
 37  3  1  0
 19  8  1  0
 13  9  1  0
 32 22  1  0
 29 24  1  0
  1 38  1  0
  1 39  1  0
  1 40  1  0
  2 41  1  0
  2 42  1  0
  4 43  1  0
  6 44  1  0
  6 45  1  0
  7 46  1  0
  7 47  1  0
  9 48  1  0
 10 49  1  0
 10 50  1  0
 11 51  1  0
 11 52  1  0
 12 53  1  0
 12 54  1  0
 13 55  1  0
 13 56  1  0
 14 57  1  0
 14 58  1  0
 21 59  1  0
 21 60  1  0
 28 61  1  0
 30 62  1  0
 30 63  1  0
 30 64  1  0
 31 65  1  0
 31 66  1  0
 31 67  1  0
 33 68  1  0
 35 69  1  0
 35 70  1  0
 36 71  1  0
 36 72  1  0
 36 73  1  0
M  CHG  1  16  -1
M  END
>  <conformer_id>  (5) 
1

>  <converged>  (5) 
1

>  <energy_abs>  (5) 
154.30044729900922

>  <cluster_no>  (5) 
5

>  <cluster_centroid>  (5) 
1

>  <rms_to_centroid>  (5) 
0.0

>  <energy_delta>  (5) 
14.806580398435699

$$$$
