DB08500
     RDKit          3D

 46 49  0  0  0  0  0  0  0  0999 V2000
    0.5792    0.7020    0.5432 C   0  0  2  0  0  0  0  0  0  0  0  0
    1.9761    0.1508    0.3931 C   0  0  0  0  0  0  0  0  0  0  0  0
    2.9646    1.0835    0.0132 C   0  0  0  0  0  0  0  0  0  0  0  0
    4.2721    0.6675   -0.1928 C   0  0  0  0  0  0  0  0  0  0  0  0
    5.2180    1.6213   -0.6162 C   0  0  0  0  0  0  0  0  0  0  0  0
    6.5384    1.2195   -0.8244 C   0  0  0  0  0  0  0  0  0  0  0  0
    6.8948   -0.1048   -0.6174 C   0  0  0  0  0  0  0  0  0  0  0  0
    5.9544   -1.0560   -0.2100 C   0  0  0  0  0  0  0  0  0  0  0  0
    4.6239   -0.6591    0.0058 C   0  0  0  0  0  0  0  0  0  0  0  0
    3.6457   -1.5982    0.4223 C   0  0  0  0  0  0  0  0  0  0  0  0
    2.3343   -1.1649    0.6199 C   0  0  0  0  0  0  0  0  0  0  0  0
   -0.5248   -0.3320    0.4742 C   0  0  0  0  0  0  0  0  0  0  0  0
   -1.7239    0.4833    0.1238 C   0  0  2  0  0  0  0  0  0  0  0  0
   -2.5053    0.6630    1.2986 O   0  0  0  0  0  0  0  0  0  0  0  0
   -3.8396    0.1928    1.3915 C   0  0  2  0  0  0  0  0  0  0  0  0
   -3.8787   -1.1634    2.1031 C   0  0  0  0  0  0  0  0  0  0  0  0
   -3.0901   -2.1343    1.4356 O   0  0  0  0  0  0  0  0  0  0  0  0
   -4.6404    0.1582    0.0509 C   0  0  1  0  0  0  0  0  0  0  0  0
   -5.8456    0.9375    0.1354 O   0  0  0  0  0  0  0  0  0  0  0  0
   -3.8298    0.6639   -1.1546 C   0  0  2  0  0  0  0  0  0  0  0  0
   -4.5188    0.3777   -2.3693 O   0  0  0  0  0  0  0  0  0  0  0  0
   -2.4942   -0.0184   -1.1114 C   0  0  1  0  0  0  0  0  0  0  0  0
   -1.7970    0.1881   -2.3804 O   0  0  0  0  0  0  0  0  0  0  0  0
   -1.2278    1.7589   -0.2547 O   0  0  0  0  0  0  0  0  0  0  0  0
    0.2075    1.6161   -0.4699 N   0  0  0  0  0  0  0  0  0  0  0  0
    0.5446    1.2069    1.5242 H   0  0  0  0  0  0  0  0  0  0  0  0
    2.6966    2.1243   -0.1297 H   0  0  0  0  0  0  0  0  0  0  0  0
    4.9431    2.6543   -0.7874 H   0  0  0  0  0  0  0  0  0  0  0  0
    7.2707    1.9535   -1.1393 H   0  0  0  0  0  0  0  0  0  0  0  0
    7.9160   -0.4141   -0.7634 H   0  0  0  0  0  0  0  0  0  0  0  0
    6.2513   -2.0686   -0.0569 H   0  0  0  0  0  0  0  0  0  0  0  0
    3.8837   -2.6319    0.5720 H   0  0  0  0  0  0  0  0  0  0  0  0
    1.6094   -1.9008    0.9447 H   0  0  0  0  0  0  0  0  0  0  0  0
   -0.2930   -1.1086   -0.3203 H   0  0  0  0  0  0  0  0  0  0  0  0
   -0.6288   -0.8803    1.4225 H   0  0  0  0  0  0  0  0  0  0  0  0
   -4.3140    0.9035    2.0505 H   0  0  0  0  0  0  0  0  0  0  0  0
   -4.9012   -1.5450    2.2097 H   0  0  0  0  0  0  0  0  0  0  0  0
   -3.4764   -1.0592    3.1296 H   0  0  0  0  0  0  0  0  0  0  0  0
   -3.6192   -2.5034    0.7029 H   0  0  0  0  0  0  0  0  0  0  0  0
   -4.9641   -0.8576   -0.1546 H   0  0  0  0  0  0  0  0  0  0  0  0
   -6.1315    0.9948    1.0984 H   0  0  0  0  0  0  0  0  0  0  0  0
   -3.7218    1.7484   -1.1106 H   0  0  0  0  0  0  0  0  0  0  0  0
   -3.9862   -0.2850   -2.8823 H   0  0  0  0  0  0  0  0  0  0  0  0
   -2.6222   -1.1251   -1.0716 H   0  0  0  0  0  0  0  0  0  0  0  0
   -1.9805    1.1117   -2.6461 H   0  0  0  0  0  0  0  0  0  0  0  0
    0.2307    1.1583   -1.4019 H   0  0  0  0  0  0  0  0  0  0  0  0
  1  2  1  0
  2  3  2  0
  3  4  1  0
  4  5  2  0
  5  6  1  0
  6  7  2  0
  7  8  1  0
  8  9  2  0
  9 10  1  0
 10 11  2  0
  1 12  1  0
 12 13  1  0
 13 14  1  1
 14 15  1  0
 15 16  1  0
 16 17  1  0
 15 18  1  0
 18 19  1  0
 18 20  1  0
 20 21  1  0
 20 22  1  0
 22 23  1  0
 13 24  1  0
 24 25  1  0
 25  1  1  0
 11  2  1  0
  9  4  1  0
 22 13  1  0
  1 26  1  1
  3 27  1  0
  5 28  1  0
  6 29  1  0
  7 30  1  0
  8 31  1  0
 10 32  1  0
 11 33  1  0
 12 34  1  0
 12 35  1  0
 15 36  1  1
 16 37  1  0
 16 38  1  0
 17 39  1  0
 18 40  1  6
 19 41  1  0
 20 42  1  1
 21 43  1  0
 22 44  1  1
 23 45  1  0
 25 46  1  0
M  END
>  <conformer_id>  (1) 
5

>  <converged>  (1) 
1

>  <energy_abs>  (1) 
195.26756068777232

>  <cluster_no>  (1) 
1

>  <cluster_centroid>  (1) 
5

>  <rms_to_centroid>  (1) 
0.0

>  <energy_delta>  (1) 
0

$$$$
DB08500
     RDKit          3D

 46 49  0  0  0  0  0  0  0  0999 V2000
    0.5201   -0.7191    0.4484 C   0  0  2  0  0  0  0  0  0  0  0  0
    2.0189   -0.5238    0.4240 C   0  0  0  0  0  0  0  0  0  0  0  0
    2.7095   -0.2272   -0.7674 C   0  0  0  0  0  0  0  0  0  0  0  0
    4.0840    0.0072   -0.7108 C   0  0  0  0  0  0  0  0  0  0  0  0
    4.7751    0.3260   -1.9023 C   0  0  0  0  0  0  0  0  0  0  0  0
    6.1522    0.5374   -1.8361 C   0  0  0  0  0  0  0  0  0  0  0  0
    6.8391    0.4489   -0.6226 C   0  0  0  0  0  0  0  0  0  0  0  0
    6.1381    0.1478    0.5639 C   0  0  0  0  0  0  0  0  0  0  0  0
    4.7590   -0.0754    0.5145 C   0  0  0  0  0  0  0  0  0  0  0  0
    4.0753   -0.3859    1.7020 C   0  0  0  0  0  0  0  0  0  0  0  0
    2.7034   -0.6169    1.6249 C   0  0  0  0  0  0  0  0  0  0  0  0
   -0.2477   -0.1430   -0.7771 C   0  0  0  0  0  0  0  0  0  0  0  0
   -1.4882    0.3432   -0.1650 C   0  0  2  0  0  0  0  0  0  0  0  0
   -2.2949   -0.8078    0.1687 O   0  0  0  0  0  0  0  0  0  0  0  0
   -3.5027   -0.3445    0.7730 C   0  0  2  0  0  0  0  0  0  0  0  0
   -4.0556   -1.4540    1.6739 C   0  0  0  0  0  0  0  0  0  0  0  0
   -5.2744   -1.0352    2.2930 O   0  0  0  0  0  0  0  0  0  0  0  0
   -4.4468    0.0790   -0.3825 C   0  0  1  0  0  0  0  0  0  0  0  0
   -5.5198    0.9610    0.0341 O   0  0  0  0  0  0  0  0  0  0  0  0
   -3.6682    0.8577   -1.4928 C   0  0  2  0  0  0  0  0  0  0  0  0
   -3.4950    0.0705   -2.6891 O   0  0  0  0  0  0  0  0  0  0  0  0
   -2.2831    1.3969   -1.0315 C   0  0  1  0  0  0  0  0  0  0  0  0
   -2.4908    2.5977   -0.2324 O   0  0  0  0  0  0  0  0  0  0  0  0
   -0.9898    0.9593    1.0273 O   0  0  0  0  0  0  0  0  0  0  0  0
   -0.0429   -0.0711    1.6506 N   0  0  0  0  0  0  0  0  0  0  0  0
    0.3253   -1.8020    0.4943 H   0  0  0  0  0  0  0  0  0  0  0  0
    2.1994   -0.1567   -1.7188 H   0  0  0  0  0  0  0  0  0  0  0  0
    4.2598    0.4019   -2.8422 H   0  0  0  0  0  0  0  0  0  0  0  0
    6.6839    0.7672   -2.7486 H   0  0  0  0  0  0  0  0  0  0  0  0
    7.8930    0.6046   -0.5847 H   0  0  0  0  0  0  0  0  0  0  0  0
    6.6789    0.0830    1.4920 H   0  0  0  0  0  0  0  0  0  0  0  0
    4.5600   -0.4348    2.6611 H   0  0  0  0  0  0  0  0  0  0  0  0
    2.1749   -0.8317    2.5596 H   0  0  0  0  0  0  0  0  0  0  0  0
   -0.3670   -0.9073   -1.5735 H   0  0  0  0  0  0  0  0  0  0  0  0
    0.3086    0.7111   -1.2267 H   0  0  0  0  0  0  0  0  0  0  0  0
   -3.3279    0.5160    1.4420 H   0  0  0  0  0  0  0  0  0  0  0  0
   -4.2298   -2.3649    1.1008 H   0  0  0  0  0  0  0  0  0  0  0  0
   -3.3181   -1.6892    2.4374 H   0  0  0  0  0  0  0  0  0  0  0  0
   -5.2187   -1.2696    3.2157 H   0  0  0  0  0  0  0  0  0  0  0  0
   -4.8986   -0.8059   -0.8016 H   0  0  0  0  0  0  0  0  0  0  0  0
   -5.1205    1.6502    0.5618 H   0  0  0  0  0  0  0  0  0  0  0  0
   -4.2616    1.7081   -1.7857 H   0  0  0  0  0  0  0  0  0  0  0  0
   -3.6886   -0.8516   -2.4890 H   0  0  0  0  0  0  0  0  0  0  0  0
   -1.6820    1.6588   -1.9072 H   0  0  0  0  0  0  0  0  0  0  0  0
   -3.2003    3.0934   -0.6005 H   0  0  0  0  0  0  0  0  0  0  0  0
   -0.7454   -0.6806    2.0254 H   0  0  0  0  0  0  0  0  0  0  0  0
  1  2  1  0
  2  3  2  0
  3  4  1  0
  4  5  2  0
  5  6  1  0
  6  7  2  0
  7  8  1  0
  8  9  2  0
  9 10  1  0
 10 11  2  0
  1 12  1  0
 12 13  1  0
 13 14  1  1
 14 15  1  0
 15 16  1  0
 16 17  1  0
 15 18  1  0
 18 19  1  0
 18 20  1  0
 20 21  1  0
 20 22  1  0
 22 23  1  0
 13 24  1  0
 24 25  1  0
 25  1  1  0
 11  2  1  0
  9  4  1  0
 22 13  1  0
  1 26  1  1
  3 27  1  0
  5 28  1  0
  6 29  1  0
  7 30  1  0
  8 31  1  0
 10 32  1  0
 11 33  1  0
 12 34  1  0
 12 35  1  0
 15 36  1  1
 16 37  1  0
 16 38  1  0
 17 39  1  0
 18 40  1  6
 19 41  1  0
 20 42  1  6
 21 43  1  0
 22 44  1  6
 23 45  1  0
 25 46  1  0
M  END
>  <conformer_id>  (2) 
4

>  <converged>  (2) 
1

>  <energy_abs>  (2) 
204.47485726577844

>  <cluster_no>  (2) 
2

>  <cluster_centroid>  (2) 
4

>  <rms_to_centroid>  (2) 
0.0

>  <energy_delta>  (2) 
9.2072965780061224

$$$$
DB08500
     RDKit          3D

 46 49  0  0  0  0  0  0  0  0999 V2000
    0.5637   -0.5072    1.0385 C   0  0  2  0  0  0  0  0  0  0  0  0
    2.0268   -0.2151    0.7800 C   0  0  0  0  0  0  0  0  0  0  0  0
    2.6081   -0.3196   -0.4779 C   0  0  0  0  0  0  0  0  0  0  0  0
    3.9556   -0.0904   -0.7027 C   0  0  0  0  0  0  0  0  0  0  0  0
    4.5137   -0.1997   -1.9803 C   0  0  0  0  0  0  0  0  0  0  0  0
    5.8658    0.0169   -2.1919 C   0  0  0  0  0  0  0  0  0  0  0  0
    6.6691    0.3452   -1.1113 C   0  0  0  0  0  0  0  0  0  0  0  0
    6.1288    0.4597    0.1647 C   0  0  0  0  0  0  0  0  0  0  0  0
    4.7715    0.2450    0.3818 C   0  0  0  0  0  0  0  0  0  0  0  0
    4.2030    0.3493    1.6481 C   0  0  0  0  0  0  0  0  0  0  0  0
    2.8528    0.1232    1.8528 C   0  0  0  0  0  0  0  0  0  0  0  0
   -0.2951   -0.4130   -0.1977 C   0  0  0  0  0  0  0  0  0  0  0  0
   -1.5978    0.1800    0.2724 C   0  0  2  0  0  0  0  0  0  0  0  0
   -2.4085   -0.9484    0.5571 O   0  0  0  0  0  0  0  0  0  0  0  0
   -3.7240   -0.6239    0.9718 C   0  0  2  0  0  0  0  0  0  0  0  0
   -4.5256   -1.9265    0.8796 C   0  0  0  0  0  0  0  0  0  0  0  0
   -5.9022   -1.7429    1.2384 O   0  0  0  0  0  0  0  0  0  0  0  0
   -4.3642    0.4701    0.1079 C   0  0  1  0  0  0  0  0  0  0  0  0
   -4.3326    1.6916    0.8526 O   0  0  0  0  0  0  0  0  0  0  0  0
   -3.5681    0.6523   -1.1828 C   0  0  2  0  0  0  0  0  0  0  0  0
   -3.5554   -0.5564   -1.9559 O   0  0  0  0  0  0  0  0  0  0  0  0
   -2.1461    1.0853   -0.8263 C   0  0  1  0  0  0  0  0  0  0  0  0
   -2.1377    2.4867   -0.4388 O   0  0  0  0  0  0  0  0  0  0  0  0
   -1.2728    0.9165    1.4226 O   0  0  0  0  0  0  0  0  0  0  0  0
   -0.0407    0.4440    1.9558 N   0  0  0  0  0  0  0  0  0  0  0  0
    0.5069   -1.5122    1.4653 H   0  0  0  0  0  0  0  0  0  0  0  0
    2.0001   -0.6122   -1.3218 H   0  0  0  0  0  0  0  0  0  0  0  0
    3.8821   -0.4562   -2.8237 H   0  0  0  0  0  0  0  0  0  0  0  0
    6.2817   -0.0748   -3.1924 H   0  0  0  0  0  0  0  0  0  0  0  0
    7.7238    0.5094   -1.2643 H   0  0  0  0  0  0  0  0  0  0  0  0
    6.7621    0.7142    1.0104 H   0  0  0  0  0  0  0  0  0  0  0  0
    4.8389    0.6004    2.4896 H   0  0  0  0  0  0  0  0  0  0  0  0
    2.4427    0.1895    2.8558 H   0  0  0  0  0  0  0  0  0  0  0  0
    0.1616    0.2469   -0.9760 H   0  0  0  0  0  0  0  0  0  0  0  0
   -0.4166   -1.4275   -0.6066 H   0  0  0  0  0  0  0  0  0  0  0  0
   -3.7102   -0.3067    2.0229 H   0  0  0  0  0  0  0  0  0  0  0  0
   -4.0987   -2.6703    1.5550 H   0  0  0  0  0  0  0  0  0  0  0  0
   -4.4809   -2.3483   -0.1414 H   0  0  0  0  0  0  0  0  0  0  0  0
   -6.4117   -1.5282    0.4292 H   0  0  0  0  0  0  0  0  0  0  0  0
   -5.4127    0.2427   -0.1253 H   0  0  0  0  0  0  0  0  0  0  0  0
   -4.5057    2.4488    0.2676 H   0  0  0  0  0  0  0  0  0  0  0  0
   -4.0268    1.4364   -1.8005 H   0  0  0  0  0  0  0  0  0  0  0  0
   -2.6647   -0.9646   -1.9235 H   0  0  0  0  0  0  0  0  0  0  0  0
   -1.5372    1.0122   -1.7374 H   0  0  0  0  0  0  0  0  0  0  0  0
   -2.1465    3.0137   -1.2523 H   0  0  0  0  0  0  0  0  0  0  0  0
    0.5236    1.2932    2.0107 H   0  0  0  0  0  0  0  0  0  0  0  0
  1  2  1  0
  2  3  2  0
  3  4  1  0
  4  5  2  0
  5  6  1  0
  6  7  2  0
  7  8  1  0
  8  9  2  0
  9 10  1  0
 10 11  2  0
  1 12  1  0
 12 13  1  0
 13 14  1  1
 14 15  1  0
 15 16  1  0
 16 17  1  0
 15 18  1  0
 18 19  1  0
 18 20  1  0
 20 21  1  0
 20 22  1  0
 22 23  1  0
 13 24  1  0
 24 25  1  0
 25  1  1  0
 11  2  1  0
  9  4  1  0
 22 13  1  0
  1 26  1  1
  3 27  1  0
  5 28  1  0
  6 29  1  0
  7 30  1  0
  8 31  1  0
 10 32  1  0
 11 33  1  0
 12 34  1  0
 12 35  1  0
 15 36  1  1
 16 37  1  0
 16 38  1  0
 17 39  1  0
 18 40  1  6
 19 41  1  0
 20 42  1  6
 21 43  1  0
 22 44  1  6
 23 45  1  0
 25 46  1  0
M  END
>  <conformer_id>  (3) 
3

>  <converged>  (3) 
1

>  <energy_abs>  (3) 
204.47405041555035

>  <cluster_no>  (3) 
3

>  <cluster_centroid>  (3) 
3

>  <rms_to_centroid>  (3) 
0.0

>  <energy_delta>  (3) 
9.2064897277780346

$$$$
DB08500
     RDKit          3D

 46 49  0  0  0  0  0  0  0  0999 V2000
    0.5376   -0.5005    0.6542 C   0  0  2  0  0  0  0  0  0  0  0  0
    1.9415   -0.1155    0.2592 C   0  0  0  0  0  0  0  0  0  0  0  0
    2.9976   -1.0207    0.4030 C   0  0  0  0  0  0  0  0  0  0  0  0
    4.2914   -0.6735    0.0462 C   0  0  0  0  0  0  0  0  0  0  0  0
    5.3510   -1.5787    0.1995 C   0  0  0  0  0  0  0  0  0  0  0  0
    6.6323   -1.2152   -0.1608 C   0  0  0  0  0  0  0  0  0  0  0  0
    6.8875    0.0482   -0.6699 C   0  0  0  0  0  0  0  0  0  0  0  0
    5.8517    0.9602   -0.8153 C   0  0  0  0  0  0  0  0  0  0  0  0
    4.5576    0.6100   -0.4672 C   0  0  0  0  0  0  0  0  0  0  0  0
    3.5076    1.5164   -0.6216 C   0  0  0  0  0  0  0  0  0  0  0  0
    2.2280    1.1444   -0.2695 C   0  0  0  0  0  0  0  0  0  0  0  0
   -0.4040   -0.4726   -0.5258 C   0  0  0  0  0  0  0  0  0  0  0  0
   -1.6931    0.0697    0.0574 C   0  0  2  0  0  0  0  0  0  0  0  0
   -2.5752   -1.0251    0.2436 O   0  0  0  0  0  0  0  0  0  0  0  0
   -3.8034   -0.5093    0.7497 C   0  0  2  0  0  0  0  0  0  0  0  0
   -4.5315   -1.5737    1.5768 C   0  0  0  0  0  0  0  0  0  0  0  0
   -3.6418   -1.9751    2.6205 O   0  0  0  0  0  0  0  0  0  0  0  0
   -4.5732    0.0203   -0.4429 C   0  0  1  0  0  0  0  0  0  0  0  0
   -5.7819    0.6321   -0.0147 O   0  0  0  0  0  0  0  0  0  0  0  0
   -3.7296    1.0125   -1.2612 C   0  0  2  0  0  0  0  0  0  0  0  0
   -3.7111    0.6083   -2.6322 O   0  0  0  0  0  0  0  0  0  0  0  0
   -2.2955    1.2121   -0.7794 C   0  0  1  0  0  0  0  0  0  0  0  0
   -2.1775    2.4755   -0.1172 O   0  0  0  0  0  0  0  0  0  0  0  0
   -1.4060    0.5471    1.3715 O   0  0  0  0  0  0  0  0  0  0  0  0
   -0.0194    0.4506    1.6082 N   0  0  0  0  0  0  0  0  0  0  0  0
    0.5436   -1.4988    1.1177 H   0  0  0  0  0  0  0  0  0  0  0  0
    2.7865   -2.0055    0.8159 H   0  0  0  0  0  0  0  0  0  0  0  0
    5.1669   -2.5713    0.5978 H   0  0  0  0  0  0  0  0  0  0  0  0
    7.4448   -1.9277   -0.0475 H   0  0  0  0  0  0  0  0  0  0  0  0
    7.8940    0.3289   -0.9544 H   0  0  0  0  0  0  0  0  0  0  0  0
    6.0671    1.9449   -1.2165 H   0  0  0  0  0  0  0  0  0  0  0  0
    3.6908    2.5208   -0.9996 H   0  0  0  0  0  0  0  0  0  0  0  0
    1.4279    1.8746   -0.4021 H   0  0  0  0  0  0  0  0  0  0  0  0
   -0.4959   -1.4769   -0.9592 H   0  0  0  0  0  0  0  0  0  0  0  0
   -0.0215    0.1780   -1.3282 H   0  0  0  0  0  0  0  0  0  0  0  0
   -3.6131    0.3262    1.4530 H   0  0  0  0  0  0  0  0  0  0  0  0
   -4.8241   -2.4808    1.0303 H   0  0  0  0  0  0  0  0  0  0  0  0
   -5.4085   -1.1538    2.0950 H   0  0  0  0  0  0  0  0  0  0  0  0
   -2.7325   -2.0463    2.2521 H   0  0  0  0  0  0  0  0  0  0  0  0
   -4.9101   -0.7937   -1.0914 H   0  0  0  0  0  0  0  0  0  0  0  0
   -5.6315    1.1813    0.7773 H   0  0  0  0  0  0  0  0  0  0  0  0
   -4.2459    1.9793   -1.2721 H   0  0  0  0  0  0  0  0  0  0  0  0
   -3.3590    1.3601   -3.1661 H   0  0  0  0  0  0  0  0  0  0  0  0
   -1.6557    1.3414   -1.6576 H   0  0  0  0  0  0  0  0  0  0  0  0
   -2.9202    2.6043    0.5087 H   0  0  0  0  0  0  0  0  0  0  0  0
    0.3560    1.3965    1.4345 H   0  0  0  0  0  0  0  0  0  0  0  0
  1  2  1  0
  2  3  2  0
  3  4  1  0
  4  5  2  0
  5  6  1  0
  6  7  2  0
  7  8  1  0
  8  9  2  0
  9 10  1  0
 10 11  2  0
  1 12  1  0
 12 13  1  0
 13 14  1  1
 14 15  1  0
 15 16  1  0
 16 17  1  0
 15 18  1  0
 18 19  1  0
 18 20  1  0
 20 21  1  0
 20 22  1  0
 22 23  1  0
 13 24  1  0
 24 25  1  0
 25  1  1  0
 11  2  1  0
  9  4  1  0
 22 13  1  0
  1 26  1  1
  3 27  1  0
  5 28  1  0
  6 29  1  0
  7 30  1  0
  8 31  1  0
 10 32  1  0
 11 33  1  0
 12 34  1  0
 12 35  1  0
 15 36  1  1
 16 37  1  0
 16 38  1  0
 17 39  1  0
 18 40  1  6
 19 41  1  0
 20 42  1  6
 21 43  1  0
 22 44  1  6
 23 45  1  0
 25 46  1  0
M  END
>  <conformer_id>  (4) 
2

>  <converged>  (4) 
1

>  <energy_abs>  (4) 
199.46523875081616

>  <cluster_no>  (4) 
4

>  <cluster_centroid>  (4) 
2

>  <rms_to_centroid>  (4) 
0.0

>  <energy_delta>  (4) 
4.1976780630438384

$$$$
DB08500
     RDKit          3D

 46 49  0  0  0  0  0  0  0  0999 V2000
    0.6394    0.3950    1.3929 C   0  0  2  0  0  0  0  0  0  0  0  0
    2.0367    0.0994    0.9164 C   0  0  0  0  0  0  0  0  0  0  0  0
    2.5558    0.6009   -0.2728 C   0  0  0  0  0  0  0  0  0  0  0  0
    3.8788    0.3250   -0.6606 C   0  0  0  0  0  0  0  0  0  0  0  0
    4.4234    0.8593   -1.8448 C   0  0  0  0  0  0  0  0  0  0  0  0
    5.7306    0.5866   -2.2048 C   0  0  0  0  0  0  0  0  0  0  0  0
    6.5040   -0.2184   -1.3912 C   0  0  0  0  0  0  0  0  0  0  0  0
    5.9915   -0.7549   -0.2196 C   0  0  0  0  0  0  0  0  0  0  0  0
    4.6620   -0.4876    0.1587 C   0  0  0  0  0  0  0  0  0  0  0  0
    4.1297   -1.0204    1.3475 C   0  0  0  0  0  0  0  0  0  0  0  0
    2.8262   -0.7242    1.7035 C   0  0  0  0  0  0  0  0  0  0  0  0
   -0.4067   -0.2329    0.4995 C   0  0  0  0  0  0  0  0  0  0  0  0
   -1.6144    0.7086    0.6644 C   0  0  2  0  0  0  0  0  0  0  0  0
   -2.5720   -0.0294    1.3696 O   0  0  0  0  0  0  0  0  0  0  0  0
   -3.8837   -0.1766    0.9430 C   0  0  2  0  0  0  0  0  0  0  0  0
   -4.2894   -1.6171    1.3486 C   0  0  0  0  0  0  0  0  0  0  0  0
   -5.6179   -1.9258    0.9531 O   0  0  0  0  0  0  0  0  0  0  0  0
   -4.2099    0.0498   -0.5253 C   0  0  1  0  0  0  0  0  0  0  0  0
   -5.1528    1.1072   -0.6503 O   0  0  0  0  0  0  0  0  0  0  0  0
   -2.9611    0.3375   -1.3902 C   0  0  2  0  0  0  0  0  0  0  0  0
   -2.2452   -0.8387   -1.6943 O   0  0  0  0  0  0  0  0  0  0  0  0
   -2.0642    1.3193   -0.6559 C   0  0  1  0  0  0  0  0  0  0  0  0
   -2.7520    2.5425   -0.4551 O   0  0  0  0  0  0  0  0  0  0  0  0
   -1.1270    1.7773    1.4642 O   0  0  0  0  0  0  0  0  0  0  0  0
    0.2989    1.8127    1.3490 N   0  0  0  0  0  0  0  0  0  0  0  0
    0.5202    0.0606    2.4119 H   0  0  0  0  0  0  0  0  0  0  0  0
    1.9495    1.2204   -0.9075 H   0  0  0  0  0  0  0  0  0  0  0  0
    3.8301    1.5021   -2.4888 H   0  0  0  0  0  0  0  0  0  0  0  0
    6.1474    1.0034   -3.1226 H   0  0  0  0  0  0  0  0  0  0  0  0
    7.5311   -0.4417   -1.6678 H   0  0  0  0  0  0  0  0  0  0  0  0
    6.6189   -1.3874    0.4166 H   0  0  0  0  0  0  0  0  0  0  0  0
    4.7352   -1.6522    2.0031 H   0  0  0  0  0  0  0  0  0  0  0  0
    2.4361   -1.1497    2.6428 H   0  0  0  0  0  0  0  0  0  0  0  0
   -0.6206   -1.2686    0.8525 H   0  0  0  0  0  0  0  0  0  0  0  0
   -0.0890   -0.3115   -0.5453 H   0  0  0  0  0  0  0  0  0  0  0  0
   -4.5084    0.5054    1.5515 H   0  0  0  0  0  0  0  0  0  0  0  0
   -4.1937   -1.7835    2.4167 H   0  0  0  0  0  0  0  0  0  0  0  0
   -3.6159   -2.3393    0.8277 H   0  0  0  0  0  0  0  0  0  0  0  0
   -5.6382   -2.8181    0.5380 H   0  0  0  0  0  0  0  0  0  0  0  0
   -4.7068   -0.8314   -0.9692 H   0  0  0  0  0  0  0  0  0  0  0  0
   -5.4499    1.1990   -1.5725 H   0  0  0  0  0  0  0  0  0  0  0  0
   -3.2737    0.7989   -2.3493 H   0  0  0  0  0  0  0  0  0  0  0  0
   -2.8829   -1.5619   -1.9002 H   0  0  0  0  0  0  0  0  0  0  0  0
   -1.1853    1.5569   -1.2686 H   0  0  0  0  0  0  0  0  0  0  0  0
   -2.8879    2.6835    0.5115 H   0  0  0  0  0  0  0  0  0  0  0  0
    0.5034    2.2491    0.4740 H   0  0  0  0  0  0  0  0  0  0  0  0
  1  2  1  0
  2  3  2  0
  3  4  1  0
  4  5  2  0
  5  6  1  0
  6  7  2  0
  7  8  1  0
  8  9  2  0
  9 10  1  0
 10 11  2  0
  1 12  1  0
 12 13  1  0
 13 14  1  1
 14 15  1  0
 15 16  1  0
 16 17  1  0
 15 18  1  0
 18 19  1  0
 18 20  1  0
 20 21  1  0
 20 22  1  0
 22 23  1  0
 13 24  1  0
 24 25  1  0
 25  1  1  0
 11  2  1  0
  9  4  1  0
 22 13  1  0
  1 26  1  1
  3 27  1  0
  5 28  1  0
  6 29  1  0
  7 30  1  0
  8 31  1  0
 10 32  1  0
 11 33  1  0
 12 34  1  0
 12 35  1  0
 15 36  1  1
 16 37  1  0
 16 38  1  0
 17 39  1  0
 18 40  1  6
 19 41  1  0
 20 42  1  6
 21 43  1  0
 22 44  1  6
 23 45  1  0
 25 46  1  0
M  END
>  <conformer_id>  (5) 
1

>  <converged>  (5) 
1

>  <energy_abs>  (5) 
202.2879002116498

>  <cluster_no>  (5) 
5

>  <cluster_centroid>  (5) 
1

>  <rms_to_centroid>  (5) 
0.0

>  <energy_delta>  (5) 
7.0203395238774817

$$$$
