DB04865
     RDKit          3D

 79 83  0  0  0  0  0  0  0  0999 V2000
   -0.6887   -0.9938   -0.2771 C   0  0  2  0  0  0  0  0  0  0  0  0
    0.4305   -0.1915    0.2250 O   0  0  0  0  0  0  0  0  0  0  0  0
    1.4398   -1.0064    0.7368 C   0  0  0  0  0  0  0  0  0  0  0  0
    1.3177   -2.2245    0.6962 O   0  0  0  0  0  0  0  0  0  0  0  0
    2.6626   -0.2455    1.2412 C   0  0  1  0  0  0  0  0  0  0  0  0
    3.6303   -1.1715    1.7035 O   0  0  0  0  0  0  0  0  0  0  0  0
    3.3096    0.5120    0.0126 C   0  0  0  0  0  0  0  0  0  0  0  0
    3.7768   -0.4612   -1.0541 C   0  0  0  0  0  0  0  0  0  0  0  0
    4.3728    0.1391   -2.2990 C   0  0  0  0  0  0  0  0  0  0  0  0
    5.7096    0.8462   -2.1479 C   0  0  0  0  0  0  0  0  0  0  0  0
    6.2563    1.1834   -3.5714 C   0  0  0  0  0  0  0  0  0  0  0  0
    5.5804    2.1729   -1.4130 C   0  0  0  0  0  0  0  0  0  0  0  0
    6.6335    0.0241   -1.4849 O   0  0  0  0  0  0  0  0  0  0  0  0
    2.4588    0.7340    2.3948 C   0  0  0  0  0  0  0  0  0  0  0  0
    1.7514   -0.0257    3.4924 C   0  0  0  0  0  0  0  0  0  0  0  0
    0.7492   -0.6682    3.3282 O   0  0  0  0  0  0  0  0  0  0  0  0
    2.5018   -0.0054    4.6291 O   0  0  0  0  0  0  0  0  0  0  0  0
    1.9589   -0.7517    5.7016 C   0  0  0  0  0  0  0  0  0  0  0  0
   -1.1507   -0.6990   -1.7289 C   0  0  0  0  0  0  0  0  0  0  0  0
   -0.3587   -0.5410   -2.8374 O   0  0  0  0  0  0  0  0  0  0  0  0
    0.2564    0.7129   -2.8849 C   0  0  0  0  0  0  0  0  0  0  0  0
   -2.4196   -1.1824   -1.8334 C   0  0  0  0  0  0  0  0  0  0  0  0
   -2.9757   -1.6933   -0.4833 C   0  0  2  0  0  0  0  0  0  0  0  0
   -2.7650   -3.2202   -0.3483 C   0  0  0  0  0  0  0  0  0  0  0  0
   -4.0847   -3.8107   -0.8302 C   0  0  0  0  0  0  0  0  0  0  0  0
   -5.0231   -2.6327   -1.1665 C   0  0  0  0  0  0  0  0  0  0  0  0
   -4.4547   -1.5431   -0.2976 N   0  0  1  0  0  0  0  0  0  0  0  0
   -4.8900   -1.6852    1.1269 C   0  0  0  0  0  0  0  0  0  0  0  0
   -4.8803   -0.3526    1.8873 C   0  0  0  0  0  0  0  0  0  0  0  0
   -4.0421    0.7941    1.3342 C   0  0  0  0  0  0  0  0  0  0  0  0
   -4.6886    2.0392    1.3786 C   0  0  0  0  0  0  0  0  0  0  0  0
   -3.9952    3.0932    0.7825 C   0  0  0  0  0  0  0  0  0  0  0  0
   -2.7488    2.9073    0.1920 C   0  0  0  0  0  0  0  0  0  0  0  0
   -2.2280    4.1186   -0.3698 O   0  0  0  0  0  0  0  0  0  0  0  0
   -3.4662    4.8624   -0.1666 C   0  0  0  0  0  0  0  0  0  0  0  0
   -4.4895    4.3650    0.6928 O   0  0  0  0  0  0  0  0  0  0  0  0
   -2.0903    1.7038    0.1417 C   0  0  0  0  0  0  0  0  0  0  0  0
   -2.7417    0.6228    0.7182 C   0  0  0  0  0  0  0  0  0  0  0  0
   -2.0657   -0.8046    0.5406 C   0  0  2  0  0  0  0  0  0  0  0  0
   -0.4016   -2.0464   -0.1781 H   0  0  0  0  0  0  0  0  0  0  0  0
    3.2085   -1.8128    2.2484 H   0  0  0  0  0  0  0  0  0  0  0  0
    4.2090    1.0214    0.4048 H   0  0  0  0  0  0  0  0  0  0  0  0
    2.6875    1.3196   -0.3994 H   0  0  0  0  0  0  0  0  0  0  0  0
    4.4947   -1.2228   -0.6499 H   0  0  0  0  0  0  0  0  0  0  0  0
    2.8476   -1.0512   -1.3750 H   0  0  0  0  0  0  0  0  0  0  0  0
    4.5240   -0.7535   -2.9973 H   0  0  0  0  0  0  0  0  0  0  0  0
    3.6003    0.7764   -2.8048 H   0  0  0  0  0  0  0  0  0  0  0  0
    6.4786    0.2767   -4.1258 H   0  0  0  0  0  0  0  0  0  0  0  0
    5.5247    1.7730   -4.1269 H   0  0  0  0  0  0  0  0  0  0  0  0
    7.2001    1.7461   -3.5172 H   0  0  0  0  0  0  0  0  0  0  0  0
    6.0763    3.0341   -1.9258 H   0  0  0  0  0  0  0  0  0  0  0  0
    4.5598    2.5395   -1.3485 H   0  0  0  0  0  0  0  0  0  0  0  0
    6.0002    2.1681   -0.3994 H   0  0  0  0  0  0  0  0  0  0  0  0
    6.5235   -0.8743   -1.7151 H   0  0  0  0  0  0  0  0  0  0  0  0
    1.8295    1.5885    2.1262 H   0  0  0  0  0  0  0  0  0  0  0  0
    3.4595    1.1149    2.7330 H   0  0  0  0  0  0  0  0  0  0  0  0
    0.9398   -1.0969    5.5594 H   0  0  0  0  0  0  0  0  0  0  0  0
    2.5882   -1.6021    5.9482 H   0  0  0  0  0  0  0  0  0  0  0  0
    1.9197   -0.1284    6.5984 H   0  0  0  0  0  0  0  0  0  0  0  0
   -0.4161    1.5940   -2.7457 H   0  0  0  0  0  0  0  0  0  0  0  0
    0.6590    0.8148   -3.9026 H   0  0  0  0  0  0  0  0  0  0  0  0
    1.1056    0.8227   -2.1893 H   0  0  0  0  0  0  0  0  0  0  0  0
   -2.9433   -1.3105   -2.8178 H   0  0  0  0  0  0  0  0  0  0  0  0
   -2.5781   -3.4712    0.6827 H   0  0  0  0  0  0  0  0  0  0  0  0
   -1.8842   -3.6334   -0.8703 H   0  0  0  0  0  0  0  0  0  0  0  0
   -4.5266   -4.4102   -0.0428 H   0  0  0  0  0  0  0  0  0  0  0  0
   -3.9048   -4.4405   -1.7048 H   0  0  0  0  0  0  0  0  0  0  0  0
   -6.0932   -2.7759   -0.9598 H   0  0  0  0  0  0  0  0  0  0  0  0
   -4.9348   -2.3109   -2.2298 H   0  0  0  0  0  0  0  0  0  0  0  0
   -4.7085   -0.6189   -0.6743 H   0  0  0  0  0  0  0  0  0  0  0  0
   -4.1929   -2.4048    1.6502 H   0  0  0  0  0  0  0  0  0  0  0  0
   -5.9142   -2.1966    1.1894 H   0  0  0  0  0  0  0  0  0  0  0  0
   -5.9625   -0.1114    1.8664 H   0  0  0  0  0  0  0  0  0  0  0  0
   -4.6260   -0.5521    2.9477 H   0  0  0  0  0  0  0  0  0  0  0  0
   -5.6776    2.1755    1.8188 H   0  0  0  0  0  0  0  0  0  0  0  0
   -3.1917    5.8192    0.1212 H   0  0  0  0  0  0  0  0  0  0  0  0
   -3.9076    4.9289   -1.1195 H   0  0  0  0  0  0  0  0  0  0  0  0
   -1.1270    1.6765   -0.3946 H   0  0  0  0  0  0  0  0  0  0  0  0
   -1.9946   -1.2860    1.5577 H   0  0  0  0  0  0  0  0  0  0  0  0
  1  2  1  0
  2  3  1  0
  3  4  2  0
  3  5  1  0
  5  6  1  1
  5  7  1  0
  7  8  1  0
  8  9  1  0
  9 10  1  0
 10 11  1  0
 10 12  1  0
 10 13  1  0
  5 14  1  0
 14 15  1  0
 15 16  2  0
 15 17  1  0
 17 18  1  0
  1 19  1  0
 19 20  1  0
 20 21  1  0
 19 22  2  0
 23 22  1  6
 23 24  1  0
 24 25  1  0
 25 26  1  0
 26 27  1  0
 27 28  1  0
 28 29  1  0
 29 30  1  0
 30 31  2  0
 31 32  1  0
 32 33  2  0
 33 34  1  0
 34 35  1  0
 35 36  1  0
 33 37  1  0
 37 38  2  0
 38 39  1  0
 39  1  1  0
 27 23  1  0
 38 30  1  0
 39 23  1  0
 36 32  1  0
  1 40  1  6
  6 41  1  0
  7 42  1  0
  7 43  1  0
  8 44  1  0
  8 45  1  0
  9 46  1  0
  9 47  1  0
 11 48  1  0
 11 49  1  0
 11 50  1  0
 12 51  1  0
 12 52  1  0
 12 53  1  0
 13 54  1  0
 14 55  1  0
 14 56  1  0
 18 57  1  0
 18 58  1  0
 18 59  1  0
 21 60  1  0
 21 61  1  0
 21 62  1  0
 22 63  1  0
 24 64  1  0
 24 65  1  0
 25 66  1  0
 25 67  1  0
 26 68  1  0
 26 69  1  0
 27 70  1  6
 28 71  1  0
 28 72  1  0
 29 73  1  0
 29 74  1  0
 31 75  1  0
 35 76  1  0
 35 77  1  0
 37 78  1  0
 39 79  1  1
M  CHG  1  27   1
M  END
>  <conformer_id>  (1) 
5

>  <converged>  (1) 
1

>  <energy_abs>  (1) 
167.19679675130527

>  <cluster_no>  (1) 
1

>  <cluster_centroid>  (1) 
5

>  <rms_to_centroid>  (1) 
0.0

>  <energy_delta>  (1) 
13.983947539581294

$$$$
DB04865
     RDKit          3D

 79 83  0  0  0  0  0  0  0  0999 V2000
   -0.5907   -0.9052   -1.4813 C   0  0  2  0  0  0  0  0  0  0  0  0
   -0.1373    0.3391   -1.0448 O   0  0  0  0  0  0  0  0  0  0  0  0
    1.1592    0.2394   -0.5112 C   0  0  0  0  0  0  0  0  0  0  0  0
    1.8408   -0.7492   -0.4320 O   0  0  0  0  0  0  0  0  0  0  0  0
    1.6389    1.6600   -0.0393 C   0  0  1  0  0  0  0  0  0  0  0  0
    0.5746    2.6853   -0.1195 O   0  0  0  0  0  0  0  0  0  0  0  0
    1.9478    1.6381    1.4708 C   0  0  0  0  0  0  0  0  0  0  0  0
    2.8242    0.5860    2.1772 C   0  0  0  0  0  0  0  0  0  0  0  0
    4.2785    0.4984    1.7313 C   0  0  0  0  0  0  0  0  0  0  0  0
    5.0654   -0.5723    2.5100 C   0  0  0  0  0  0  0  0  0  0  0  0
    4.9930   -0.3073    4.0021 C   0  0  0  0  0  0  0  0  0  0  0  0
    4.5554   -1.9665    2.1811 C   0  0  0  0  0  0  0  0  0  0  0  0
    6.4278   -0.4510    2.1181 O   0  0  0  0  0  0  0  0  0  0  0  0
    2.7780    2.1003   -0.9566 C   0  0  0  0  0  0  0  0  0  0  0  0
    2.2161    2.3650   -2.3725 C   0  0  0  0  0  0  0  0  0  0  0  0
    2.0608    1.4260   -3.1595 O   0  0  0  0  0  0  0  0  0  0  0  0
    1.9133    3.6729   -2.5446 O   0  0  0  0  0  0  0  0  0  0  0  0
    1.3711    3.9252   -3.8407 C   0  0  0  0  0  0  0  0  0  0  0  0
   -1.0719   -0.8574   -2.8641 C   0  0  0  0  0  0  0  0  0  0  0  0
   -0.2226   -0.7303   -3.9441 O   0  0  0  0  0  0  0  0  0  0  0  0
    0.0466   -1.9718   -4.5350 C   0  0  0  0  0  0  0  0  0  0  0  0
   -2.4132   -0.8854   -3.0397 C   0  0  0  0  0  0  0  0  0  0  0  0
   -3.1411   -0.9938   -1.7155 C   0  0  2  0  0  0  0  0  0  0  0  0
   -4.1454   -2.1500   -1.8177 C   0  0  0  0  0  0  0  0  0  0  0  0
   -5.2085   -1.5424   -2.7064 C   0  0  0  0  0  0  0  0  0  0  0  0
   -5.1017   -0.0268   -2.5975 C   0  0  0  0  0  0  0  0  0  0  0  0
   -3.9961    0.2231   -1.5226 N   0  0  1  0  0  0  0  0  0  0  0  0
   -4.6531    0.2908   -0.1531 C   0  0  0  0  0  0  0  0  0  0  0  0
   -3.7380    1.1126    0.7379 C   0  0  0  0  0  0  0  0  0  0  0  0
   -2.7170    0.2345    1.3721 C   0  0  0  0  0  0  0  0  0  0  0  0
   -2.5301    0.5352    2.7428 C   0  0  0  0  0  0  0  0  0  0  0  0
   -1.6391   -0.2240    3.4625 C   0  0  0  0  0  0  0  0  0  0  0  0
   -0.9102   -1.2217    2.9270 C   0  0  0  0  0  0  0  0  0  0  0  0
   -0.0275   -1.8926    3.7418 O   0  0  0  0  0  0  0  0  0  0  0  0
   -0.4520   -1.2032    4.9711 C   0  0  0  0  0  0  0  0  0  0  0  0
   -1.3865   -0.0392    4.8269 O   0  0  0  0  0  0  0  0  0  0  0  0
   -1.0533   -1.5576    1.5476 C   0  0  0  0  0  0  0  0  0  0  0  0
   -1.9737   -0.7998    0.7787 C   0  0  0  0  0  0  0  0  0  0  0  0
   -1.9719   -1.2468   -0.7036 C   0  0  2  0  0  0  0  0  0  0  0  0
    0.0498   -1.7945   -1.3555 H   0  0  0  0  0  0  0  0  0  0  0  0
    0.9243    3.4529    0.3745 H   0  0  0  0  0  0  0  0  0  0  0  0
    2.3345    2.6372    1.7984 H   0  0  0  0  0  0  0  0  0  0  0  0
    0.9516    1.5536    2.0173 H   0  0  0  0  0  0  0  0  0  0  0  0
    2.8231    0.8851    3.2537 H   0  0  0  0  0  0  0  0  0  0  0  0
    2.3336   -0.3951    2.1410 H   0  0  0  0  0  0  0  0  0  0  0  0
    4.3439    0.2898    0.6571 H   0  0  0  0  0  0  0  0  0  0  0  0
    4.7584    1.4865    1.8539 H   0  0  0  0  0  0  0  0  0  0  0  0
    4.0622   -0.6557    4.4690 H   0  0  0  0  0  0  0  0  0  0  0  0
    5.0583    0.7735    4.2319 H   0  0  0  0  0  0  0  0  0  0  0  0
    5.8225   -0.7652    4.5416 H   0  0  0  0  0  0  0  0  0  0  0  0
    4.1253   -2.0094    1.1603 H   0  0  0  0  0  0  0  0  0  0  0  0
    3.7601   -2.3111    2.8632 H   0  0  0  0  0  0  0  0  0  0  0  0
    5.3657   -2.7011    2.1969 H   0  0  0  0  0  0  0  0  0  0  0  0
    6.4622   -0.5854    1.1615 H   0  0  0  0  0  0  0  0  0  0  0  0
    3.5482    1.3145   -1.0797 H   0  0  0  0  0  0  0  0  0  0  0  0
    3.3008    2.9957   -0.5879 H   0  0  0  0  0  0  0  0  0  0  0  0
    1.0675    4.9809   -3.9140 H   0  0  0  0  0  0  0  0  0  0  0  0
    2.1102    3.7428   -4.6463 H   0  0  0  0  0  0  0  0  0  0  0  0
    0.4681    3.3197   -4.0341 H   0  0  0  0  0  0  0  0  0  0  0  0
    0.6839   -1.8126   -5.4148 H   0  0  0  0  0  0  0  0  0  0  0  0
    0.5914   -2.6332   -3.8521 H   0  0  0  0  0  0  0  0  0  0  0  0
   -0.8524   -2.4936   -4.8961 H   0  0  0  0  0  0  0  0  0  0  0  0
   -2.8923   -0.8253   -3.9989 H   0  0  0  0  0  0  0  0  0  0  0  0
   -4.5284   -2.4244   -0.8283 H   0  0  0  0  0  0  0  0  0  0  0  0
   -3.6813   -3.0552   -2.2363 H   0  0  0  0  0  0  0  0  0  0  0  0
   -5.0230   -1.8232   -3.7333 H   0  0  0  0  0  0  0  0  0  0  0  0
   -6.1902   -1.8644   -2.4300 H   0  0  0  0  0  0  0  0  0  0  0  0
   -5.9960    0.5121   -2.2838 H   0  0  0  0  0  0  0  0  0  0  0  0
   -4.6781    0.4793   -3.4812 H   0  0  0  0  0  0  0  0  0  0  0  0
   -3.4631    1.0367   -1.6982 H   0  0  0  0  0  0  0  0  0  0  0  0
   -4.8635   -0.7103    0.2632 H   0  0  0  0  0  0  0  0  0  0  0  0
   -5.6421    0.8054   -0.2900 H   0  0  0  0  0  0  0  0  0  0  0  0
   -4.4221    1.5595    1.5042 H   0  0  0  0  0  0  0  0  0  0  0  0
   -3.2926    1.9636    0.1931 H   0  0  0  0  0  0  0  0  0  0  0  0
   -3.0819    1.3140    3.2409 H   0  0  0  0  0  0  0  0  0  0  0  0
    0.4294   -0.8359    5.4873 H   0  0  0  0  0  0  0  0  0  0  0  0
   -0.9335   -1.9180    5.6236 H   0  0  0  0  0  0  0  0  0  0  0  0
   -0.4662   -2.3408    1.1423 H   0  0  0  0  0  0  0  0  0  0  0  0
   -1.9789   -2.3862   -0.6117 H   0  0  0  0  0  0  0  0  0  0  0  0
  1  2  1  0
  2  3  1  0
  3  4  2  0
  3  5  1  0
  5  6  1  1
  5  7  1  0
  7  8  1  0
  8  9  1  0
  9 10  1  0
 10 11  1  0
 10 12  1  0
 10 13  1  0
  5 14  1  0
 14 15  1  0
 15 16  2  0
 15 17  1  0
 17 18  1  0
  1 19  1  0
 19 20  1  0
 20 21  1  0
 19 22  2  0
 23 22  1  6
 23 24  1  0
 24 25  1  0
 25 26  1  0
 26 27  1  0
 27 28  1  0
 28 29  1  0
 29 30  1  0
 30 31  2  0
 31 32  1  0
 32 33  2  0
 33 34  1  0
 34 35  1  0
 35 36  1  0
 33 37  1  0
 37 38  2  0
 38 39  1  0
 39  1  1  0
 27 23  1  0
 38 30  1  0
 39 23  1  0
 36 32  1  0
  1 40  1  6
  6 41  1  0
  7 42  1  0
  7 43  1  0
  8 44  1  0
  8 45  1  0
  9 46  1  0
  9 47  1  0
 11 48  1  0
 11 49  1  0
 11 50  1  0
 12 51  1  0
 12 52  1  0
 12 53  1  0
 13 54  1  0
 14 55  1  0
 14 56  1  0
 18 57  1  0
 18 58  1  0
 18 59  1  0
 21 60  1  0
 21 61  1  0
 21 62  1  0
 22 63  1  0
 24 64  1  0
 24 65  1  0
 25 66  1  0
 25 67  1  0
 26 68  1  0
 26 69  1  0
 27 70  1  6
 28 71  1  0
 28 72  1  0
 29 73  1  0
 29 74  1  0
 31 75  1  0
 35 76  1  0
 35 77  1  0
 37 78  1  0
 39 79  1  1
M  CHG  1  27   1
M  END
>  <conformer_id>  (2) 
4

>  <converged>  (2) 
1

>  <energy_abs>  (2) 
153.21284921172398

>  <cluster_no>  (2) 
2

>  <cluster_centroid>  (2) 
4

>  <rms_to_centroid>  (2) 
0.0

>  <energy_delta>  (2) 
0

$$$$
DB04865
     RDKit          3D

 79 83  0  0  0  0  0  0  0  0999 V2000
   -1.3226   -1.0191   -1.9758 C   0  0  2  0  0  0  0  0  0  0  0  0
   -0.2590   -0.3306   -1.2775 O   0  0  0  0  0  0  0  0  0  0  0  0
    0.8860   -1.0451   -1.0307 C   0  0  0  0  0  0  0  0  0  0  0  0
    1.0464   -2.1718   -1.3480 O   0  0  0  0  0  0  0  0  0  0  0  0
    2.0316   -0.3454   -0.2956 C   0  0  1  0  0  0  0  0  0  0  0  0
    1.6587    0.9925   -0.0924 O   0  0  0  0  0  0  0  0  0  0  0  0
    2.1387   -1.0314    1.0556 C   0  0  0  0  0  0  0  0  0  0  0  0
    3.2751   -0.5895    1.9444 C   0  0  0  0  0  0  0  0  0  0  0  0
    3.2676    0.8806    2.3200 C   0  0  0  0  0  0  0  0  0  0  0  0
    4.4468    1.1503    3.2327 C   0  0  0  0  0  0  0  0  0  0  0  0
    4.4791    2.6003    3.6466 C   0  0  0  0  0  0  0  0  0  0  0  0
    5.7703    0.8038    2.5824 C   0  0  0  0  0  0  0  0  0  0  0  0
    4.2806    0.3761    4.4037 O   0  0  0  0  0  0  0  0  0  0  0  0
    3.3321   -0.4943   -1.0464 C   0  0  0  0  0  0  0  0  0  0  0  0
    3.3734    0.1559   -2.4211 C   0  0  0  0  0  0  0  0  0  0  0  0
    4.3716    0.0619   -3.0624 O   0  0  0  0  0  0  0  0  0  0  0  0
    2.2724    0.8249   -2.8870 O   0  0  0  0  0  0  0  0  0  0  0  0
    2.4088    1.4175   -4.2146 C   0  0  0  0  0  0  0  0  0  0  0  0
   -1.7289   -0.1442   -3.1352 C   0  0  0  0  0  0  0  0  0  0  0  0
   -1.1388   -0.2012   -4.3566 O   0  0  0  0  0  0  0  0  0  0  0  0
   -1.3063    0.9204   -5.2551 C   0  0  0  0  0  0  0  0  0  0  0  0
   -2.7394    0.6489   -2.7802 C   0  0  0  0  0  0  0  0  0  0  0  0
   -3.1277    0.3876   -1.3699 C   0  0  2  0  0  0  0  0  0  0  0  0
   -4.6220    0.3920   -1.3193 C   0  0  0  0  0  0  0  0  0  0  0  0
   -4.9405    1.8391   -1.0705 C   0  0  0  0  0  0  0  0  0  0  0  0
   -3.6417    2.5371   -0.7445 C   0  0  0  0  0  0  0  0  0  0  0  0
   -2.6016    1.4988   -0.6003 N   0  0  1  0  0  0  0  0  0  0  0  0
   -2.3105    1.3624    0.8180 C   0  0  0  0  0  0  0  0  0  0  0  0
   -3.2325    0.4862    1.5940 C   0  0  0  0  0  0  0  0  0  0  0  0
   -2.8204   -0.9151    1.3675 C   0  0  0  0  0  0  0  0  0  0  0  0
   -2.6916   -1.6142    2.5785 C   0  0  0  0  0  0  0  0  0  0  0  0
   -2.2996   -2.9446    2.5800 C   0  0  0  0  0  0  0  0  0  0  0  0
   -2.0412   -3.5500    1.4229 C   0  0  0  0  0  0  0  0  0  0  0  0
   -1.6724   -4.8553    1.6774 O   0  0  0  0  0  0  0  0  0  0  0  0
   -1.8761   -5.1007    3.0795 C   0  0  0  0  0  0  0  0  0  0  0  0
   -2.1217   -3.8077    3.6519 O   0  0  0  0  0  0  0  0  0  0  0  0
   -2.1564   -2.8724    0.2016 C   0  0  0  0  0  0  0  0  0  0  0  0
   -2.5487   -1.5342    0.1736 C   0  0  0  0  0  0  0  0  0  0  0  0
   -2.6220   -0.9809   -1.1847 C   0  0  2  0  0  0  0  0  0  0  0  0
   -1.1015   -2.0351   -2.2474 H   0  0  0  0  0  0  0  0  0  0  0  0
    0.9344    1.2540   -0.6891 H   0  0  0  0  0  0  0  0  0  0  0  0
    2.2044   -2.1202    0.8767 H   0  0  0  0  0  0  0  0  0  0  0  0
    1.1965   -0.8198    1.5824 H   0  0  0  0  0  0  0  0  0  0  0  0
    4.2303   -0.9052    1.5067 H   0  0  0  0  0  0  0  0  0  0  0  0
    3.1791   -1.1572    2.8814 H   0  0  0  0  0  0  0  0  0  0  0  0
    3.3740    1.5568    1.4655 H   0  0  0  0  0  0  0  0  0  0  0  0
    2.3281    1.1028    2.8534 H   0  0  0  0  0  0  0  0  0  0  0  0
    3.4461    2.9935    3.6165 H   0  0  0  0  0  0  0  0  0  0  0  0
    5.1254    3.1291    2.9200 H   0  0  0  0  0  0  0  0  0  0  0  0
    4.8985    2.6495    4.6684 H   0  0  0  0  0  0  0  0  0  0  0  0
    5.7028    0.7514    1.4854 H   0  0  0  0  0  0  0  0  0  0  0  0
    6.5486    1.5531    2.8154 H   0  0  0  0  0  0  0  0  0  0  0  0
    6.1003   -0.1725    2.9422 H   0  0  0  0  0  0  0  0  0  0  0  0
    3.6407    0.8499    4.9517 H   0  0  0  0  0  0  0  0  0  0  0  0
    4.1704   -0.0694   -0.4745 H   0  0  0  0  0  0  0  0  0  0  0  0
    3.5587   -1.5647   -1.1798 H   0  0  0  0  0  0  0  0  0  0  0  0
    1.9761    0.7533   -4.9842 H   0  0  0  0  0  0  0  0  0  0  0  0
    1.8475    2.3738   -4.2136 H   0  0  0  0  0  0  0  0  0  0  0  0
    3.4626    1.5994   -4.4399 H   0  0  0  0  0  0  0  0  0  0  0  0
   -2.3834    1.0360   -5.4435 H   0  0  0  0  0  0  0  0  0  0  0  0
   -0.8791    1.8055   -4.7441 H   0  0  0  0  0  0  0  0  0  0  0  0
   -0.7769    0.7040   -6.2110 H   0  0  0  0  0  0  0  0  0  0  0  0
   -3.2284    1.3575   -3.4304 H   0  0  0  0  0  0  0  0  0  0  0  0
   -5.0123    0.0537   -2.3023 H   0  0  0  0  0  0  0  0  0  0  0  0
   -5.0448   -0.3066   -0.5851 H   0  0  0  0  0  0  0  0  0  0  0  0
   -5.3169    2.2643   -2.0026 H   0  0  0  0  0  0  0  0  0  0  0  0
   -5.6932    1.9646   -0.2845 H   0  0  0  0  0  0  0  0  0  0  0  0
   -3.7721    3.0792    0.1922 H   0  0  0  0  0  0  0  0  0  0  0  0
   -3.3383    3.2568   -1.5157 H   0  0  0  0  0  0  0  0  0  0  0  0
   -1.7634    1.8505   -1.0535 H   0  0  0  0  0  0  0  0  0  0  0  0
   -2.3969    2.3777    1.2308 H   0  0  0  0  0  0  0  0  0  0  0  0
   -1.2789    1.0474    1.0160 H   0  0  0  0  0  0  0  0  0  0  0  0
   -4.2997    0.6742    1.4549 H   0  0  0  0  0  0  0  0  0  0  0  0
   -3.0180    0.7356    2.6545 H   0  0  0  0  0  0  0  0  0  0  0  0
   -2.9055   -1.1000    3.4971 H   0  0  0  0  0  0  0  0  0  0  0  0
   -2.7172   -5.8137    3.2568 H   0  0  0  0  0  0  0  0  0  0  0  0
   -0.9531   -5.4913    3.5568 H   0  0  0  0  0  0  0  0  0  0  0  0
   -1.9480   -3.3659   -0.7288 H   0  0  0  0  0  0  0  0  0  0  0  0
   -3.3147   -1.6403   -1.7572 H   0  0  0  0  0  0  0  0  0  0  0  0
  1  2  1  0
  2  3  1  0
  3  4  2  0
  3  5  1  0
  5  6  1  1
  5  7  1  0
  7  8  1  0
  8  9  1  0
  9 10  1  0
 10 11  1  0
 10 12  1  0
 10 13  1  0
  5 14  1  0
 14 15  1  0
 15 16  2  0
 15 17  1  0
 17 18  1  0
  1 19  1  0
 19 20  1  0
 20 21  1  0
 19 22  2  0
 23 22  1  6
 23 24  1  0
 24 25  1  0
 25 26  1  0
 26 27  1  0
 27 28  1  0
 28 29  1  0
 29 30  1  0
 30 31  2  0
 31 32  1  0
 32 33  2  0
 33 34  1  0
 34 35  1  0
 35 36  1  0
 33 37  1  0
 37 38  2  0
 38 39  1  0
 39  1  1  0
 27 23  1  0
 38 30  1  0
 39 23  1  0
 36 32  1  0
  1 40  1  6
  6 41  1  0
  7 42  1  0
  7 43  1  0
  8 44  1  0
  8 45  1  0
  9 46  1  0
  9 47  1  0
 11 48  1  0
 11 49  1  0
 11 50  1  0
 12 51  1  0
 12 52  1  0
 12 53  1  0
 13 54  1  0
 14 55  1  0
 14 56  1  0
 18 57  1  0
 18 58  1  0
 18 59  1  0
 21 60  1  0
 21 61  1  0
 21 62  1  0
 22 63  1  0
 24 64  1  0
 24 65  1  0
 25 66  1  0
 25 67  1  0
 26 68  1  0
 26 69  1  0
 27 70  1  6
 28 71  1  0
 28 72  1  0
 29 73  1  0
 29 74  1  0
 31 75  1  0
 35 76  1  0
 35 77  1  0
 37 78  1  0
 39 79  1  6
M  CHG  1  27   1
M  END
>  <conformer_id>  (3) 
3

>  <converged>  (3) 
1

>  <energy_abs>  (3) 
173.13285820303915

>  <cluster_no>  (3) 
3

>  <cluster_centroid>  (3) 
3

>  <rms_to_centroid>  (3) 
0.0

>  <energy_delta>  (3) 
19.920008991315171

$$$$
DB04865
     RDKit          3D

 79 83  0  0  0  0  0  0  0  0999 V2000
   -0.4562   -0.9212    0.1058 C   0  0  2  0  0  0  0  0  0  0  0  0
    0.5715   -0.0447    0.7445 O   0  0  0  0  0  0  0  0  0  0  0  0
    1.5550   -0.8445    1.2074 C   0  0  0  0  0  0  0  0  0  0  0  0
    1.6431   -2.0367    1.2550 O   0  0  0  0  0  0  0  0  0  0  0  0
    2.7177   -0.0002    1.8672 C   0  0  1  0  0  0  0  0  0  0  0  0
    3.7853   -1.0155    2.2126 O   0  0  0  0  0  0  0  0  0  0  0  0
    3.3377    1.0675    0.9710 C   0  0  0  0  0  0  0  0  0  0  0  0
    3.7855    0.6560   -0.4326 C   0  0  0  0  0  0  0  0  0  0  0  0
    4.9265   -0.3725   -0.4330 C   0  0  0  0  0  0  0  0  0  0  0  0
    5.3621   -0.7071   -1.8495 C   0  0  0  0  0  0  0  0  0  0  0  0
    4.2188   -1.2627   -2.7129 C   0  0  0  0  0  0  0  0  0  0  0  0
    6.4753   -1.7352   -1.7814 C   0  0  0  0  0  0  0  0  0  0  0  0
    5.8994    0.4872   -2.5095 O   0  0  0  0  0  0  0  0  0  0  0  0
    2.4189    0.6190    3.1785 C   0  0  0  0  0  0  0  0  0  0  0  0
    1.2529    1.6555    3.0630 C   0  0  0  0  0  0  0  0  0  0  0  0
    0.0725    1.2235    3.1867 O   0  0  0  0  0  0  0  0  0  0  0  0
    1.6674    2.8742    2.8198 O   0  0  0  0  0  0  0  0  0  0  0  0
    0.5915    3.9454    2.6924 C   0  0  0  0  0  0  0  0  0  0  0  0
   -0.7334   -0.7295   -1.3803 C   0  0  0  0  0  0  0  0  0  0  0  0
    0.2360   -0.2443   -2.1909 O   0  0  0  0  0  0  0  0  0  0  0  0
    0.2290   -0.7510   -3.5896 C   0  0  0  0  0  0  0  0  0  0  0  0
   -1.9536   -1.1562   -1.6497 C   0  0  0  0  0  0  0  0  0  0  0  0
   -2.5906   -1.5426   -0.3991 C   0  0  2  0  0  0  0  0  0  0  0  0
   -2.4197   -3.0710   -0.1636 C   0  0  0  0  0  0  0  0  0  0  0  0
   -3.6786   -3.6748   -0.7293 C   0  0  0  0  0  0  0  0  0  0  0  0
   -4.5341   -2.5315   -1.2529 C   0  0  0  0  0  0  0  0  0  0  0  0
   -4.1126   -1.4432   -0.4337 N   0  0  1  0  0  0  0  0  0  0  0  0
   -4.6344   -1.5888    1.0084 C   0  0  0  0  0  0  0  0  0  0  0  0
   -4.9144   -0.2946    1.5471 C   0  0  0  0  0  0  0  0  0  0  0  0
   -3.9518    0.7632    1.0974 C   0  0  0  0  0  0  0  0  0  0  0  0
   -4.5779    2.0788    1.0525 C   0  0  0  0  0  0  0  0  0  0  0  0
   -3.8499    3.1416    0.6071 C   0  0  0  0  0  0  0  0  0  0  0  0
   -2.5778    2.9968    0.2136 C   0  0  0  0  0  0  0  0  0  0  0  0
   -2.0173    4.1629   -0.1905 O   0  0  0  0  0  0  0  0  0  0  0  0
   -3.1992    5.0266   -0.3053 C   0  0  0  0  0  0  0  0  0  0  0  0
   -4.2805    4.4276    0.5099 O   0  0  0  0  0  0  0  0  0  0  0  0
   -1.9496    1.7770    0.2337 C   0  0  0  0  0  0  0  0  0  0  0  0
   -2.6388    0.6570    0.6803 C   0  0  0  0  0  0  0  0  0  0  0  0
   -1.9561   -0.7423    0.6781 C   0  0  2  0  0  0  0  0  0  0  0  0
   -0.3101   -1.9051    0.2661 H   0  0  0  0  0  0  0  0  0  0  0  0
    3.4610   -1.5093    2.9661 H   0  0  0  0  0  0  0  0  0  0  0  0
    2.5890    1.8420    0.8199 H   0  0  0  0  0  0  0  0  0  0  0  0
    4.1889    1.4748    1.4936 H   0  0  0  0  0  0  0  0  0  0  0  0
    2.9468    0.2584   -0.9816 H   0  0  0  0  0  0  0  0  0  0  0  0
    4.1644    1.5652   -0.8780 H   0  0  0  0  0  0  0  0  0  0  0  0
    4.6190   -1.3219   -0.0025 H   0  0  0  0  0  0  0  0  0  0  0  0
    5.7868    0.0592    0.0846 H   0  0  0  0  0  0  0  0  0  0  0  0
    4.6675   -1.8418   -3.5078 H   0  0  0  0  0  0  0  0  0  0  0  0
    3.6286   -1.9219   -2.0869 H   0  0  0  0  0  0  0  0  0  0  0  0
    3.6156   -0.4775   -3.1852 H   0  0  0  0  0  0  0  0  0  0  0  0
    6.3662   -2.4663   -2.5647 H   0  0  0  0  0  0  0  0  0  0  0  0
    6.4268   -2.2618   -0.8277 H   0  0  0  0  0  0  0  0  0  0  0  0
    7.4365   -1.2593   -1.9012 H   0  0  0  0  0  0  0  0  0  0  0  0
    6.7589    0.6021   -2.1914 H   0  0  0  0  0  0  0  0  0  0  0  0
    2.1370   -0.1459    3.9320 H   0  0  0  0  0  0  0  0  0  0  0  0
    3.3054    1.1161    3.5477 H   0  0  0  0  0  0  0  0  0  0  0  0
   -0.0965    3.8688    3.5264 H   0  0  0  0  0  0  0  0  0  0  0  0
    1.1219    4.8925    2.7324 H   0  0  0  0  0  0  0  0  0  0  0  0
    0.1266    3.8649    1.7157 H   0  0  0  0  0  0  0  0  0  0  0  0
   -0.7207   -0.4940   -4.0561 H   0  0  0  0  0  0  0  0  0  0  0  0
    0.4082   -1.8239   -3.5503 H   0  0  0  0  0  0  0  0  0  0  0  0
    1.0711   -0.2327   -4.1201 H   0  0  0  0  0  0  0  0  0  0  0  0
   -2.3646   -1.1967   -2.6038 H   0  0  0  0  0  0  0  0  0  0  0  0
   -2.2789   -3.2960    0.9021 H   0  0  0  0  0  0  0  0  0  0  0  0
   -1.5311   -3.4145   -0.6782 H   0  0  0  0  0  0  0  0  0  0  0  0
   -3.4223   -4.3461   -1.5193 H   0  0  0  0  0  0  0  0  0  0  0  0
   -4.2325   -4.2318    0.0474 H   0  0  0  0  0  0  0  0  0  0  0  0
   -5.5921   -2.6809   -1.0977 H   0  0  0  0  0  0  0  0  0  0  0  0
   -4.3101   -2.3011   -2.2919 H   0  0  0  0  0  0  0  0  0  0  0  0
   -4.3551   -0.4503   -0.7964 H   0  0  0  0  0  0  0  0  0  0  0  0
   -5.5246   -2.1894    0.9102 H   0  0  0  0  0  0  0  0  0  0  0  0
   -3.8965   -2.1716    1.5727 H   0  0  0  0  0  0  0  0  0  0  0  0
   -5.9054    0.0137    1.1728 H   0  0  0  0  0  0  0  0  0  0  0  0
   -4.9763   -0.2988    2.6449 H   0  0  0  0  0  0  0  0  0  0  0  0
   -5.5786    2.1273    1.3654 H   0  0  0  0  0  0  0  0  0  0  0  0
   -2.9798    6.0793    0.0694 H   0  0  0  0  0  0  0  0  0  0  0  0
   -3.5208    5.1003   -1.3805 H   0  0  0  0  0  0  0  0  0  0  0  0
   -0.9198    1.6735   -0.0976 H   0  0  0  0  0  0  0  0  0  0  0  0
   -2.0299   -1.1490    1.6213 H   0  0  0  0  0  0  0  0  0  0  0  0
  1  2  1  0
  2  3  1  0
  3  4  2  0
  3  5  1  0
  5  6  1  1
  5  7  1  0
  7  8  1  0
  8  9  1  0
  9 10  1  0
 10 11  1  0
 10 12  1  0
 10 13  1  0
  5 14  1  0
 14 15  1  0
 15 16  2  0
 15 17  1  0
 17 18  1  0
  1 19  1  0
 19 20  1  0
 20 21  1  0
 19 22  2  0
 23 22  1  6
 23 24  1  0
 24 25  1  0
 25 26  1  0
 26 27  1  0
 27 28  1  0
 28 29  1  0
 29 30  1  0
 30 31  2  0
 31 32  1  0
 32 33  2  0
 33 34  1  0
 34 35  1  0
 35 36  1  0
 33 37  1  0
 37 38  2  0
 38 39  1  0
 39  1  1  0
 27 23  1  0
 38 30  1  0
 39 23  1  0
 36 32  1  0
  1 40  1  6
  6 41  1  0
  7 42  1  0
  7 43  1  0
  8 44  1  0
  8 45  1  0
  9 46  1  0
  9 47  1  0
 11 48  1  0
 11 49  1  0
 11 50  1  0
 12 51  1  0
 12 52  1  0
 12 53  1  0
 13 54  1  0
 14 55  1  0
 14 56  1  0
 18 57  1  0
 18 58  1  0
 18 59  1  0
 21 60  1  0
 21 61  1  0
 21 62  1  0
 22 63  1  0
 24 64  1  0
 24 65  1  0
 25 66  1  0
 25 67  1  0
 26 68  1  0
 26 69  1  0
 27 70  1  6
 28 71  1  0
 28 72  1  0
 29 73  1  0
 29 74  1  0
 31 75  1  0
 35 76  1  0
 35 77  1  0
 37 78  1  0
 39 79  1  1
M  CHG  1  27   1
M  END
>  <conformer_id>  (4) 
2

>  <converged>  (4) 
1

>  <energy_abs>  (4) 
189.77734530037338

>  <cluster_no>  (4) 
4

>  <cluster_centroid>  (4) 
2

>  <rms_to_centroid>  (4) 
0.0

>  <energy_delta>  (4) 
36.564496088649406

$$$$
DB04865
     RDKit          3D

 79 83  0  0  0  0  0  0  0  0999 V2000
   -1.2795   -0.3370   -1.1792 C   0  0  2  0  0  0  0  0  0  0  0  0
   -0.2645    0.6037   -0.5978 O   0  0  0  0  0  0  0  0  0  0  0  0
    0.9656    0.3211   -0.9599 C   0  0  0  0  0  0  0  0  0  0  0  0
    1.3603   -0.7377   -1.6341 O   0  0  0  0  0  0  0  0  0  0  0  0
    2.0240    1.2636   -0.4024 C   0  0  1  0  0  0  0  0  0  0  0  0
    1.4158    2.3593    0.3513 O   0  0  0  0  0  0  0  0  0  0  0  0
    2.8358    0.3548    0.4769 C   0  0  0  0  0  0  0  0  0  0  0  0
    4.0837    0.9853    1.2602 C   0  0  0  0  0  0  0  0  0  0  0  0
    4.6264   -0.0097    2.2364 C   0  0  0  0  0  0  0  0  0  0  0  0
    5.2033   -1.3256    1.6172 C   0  0  0  0  0  0  0  0  0  0  0  0
    5.7897   -2.0541    2.7640 C   0  0  0  0  0  0  0  0  0  0  0  0
    6.2782   -1.0964    0.5430 C   0  0  0  0  0  0  0  0  0  0  0  0
    4.1574   -2.1160    1.0499 O   0  0  0  0  0  0  0  0  0  0  0  0
    2.8349    1.7510   -1.6835 C   0  0  0  0  0  0  0  0  0  0  0  0
    3.9367    2.8416   -1.4195 C   0  0  0  0  0  0  0  0  0  0  0  0
    3.9303    3.5807   -0.4055 O   0  0  0  0  0  0  0  0  0  0  0  0
    4.7720    2.8774   -2.4387 O   0  0  0  0  0  0  0  0  0  0  0  0
    5.8476    3.9038   -2.3397 C   0  0  0  0  0  0  0  0  0  0  0  0
   -2.2838    0.2404   -2.1451 C   0  0  0  0  0  0  0  0  0  0  0  0
   -1.9888    1.3165   -2.9074 O   0  0  0  0  0  0  0  0  0  0  0  0
   -1.3768    0.9716   -4.1648 C   0  0  0  0  0  0  0  0  0  0  0  0
   -3.4137   -0.3674   -2.1027 C   0  0  0  0  0  0  0  0  0  0  0  0
   -3.3147   -1.4598   -1.0354 C   0  0  2  0  0  0  0  0  0  0  0  0
   -2.9063   -2.7784   -1.7155 C   0  0  0  0  0  0  0  0  0  0  0  0
   -4.2331   -3.3502   -2.1345 C   0  0  0  0  0  0  0  0  0  0  0  0
   -5.3371   -2.5275   -1.4693 C   0  0  0  0  0  0  0  0  0  0  0  0
   -4.6248   -1.8205   -0.4012 N   0  0  1  0  0  0  0  0  0  0  0  0
   -4.4612   -2.7350    0.8227 C   0  0  0  0  0  0  0  0  0  0  0  0
   -4.1852   -1.9748    2.0575 C   0  0  0  0  0  0  0  0  0  0  0  0
   -3.8645   -0.5331    1.8948 C   0  0  0  0  0  0  0  0  0  0  0  0
   -4.5296    0.3773    2.7722 C   0  0  0  0  0  0  0  0  0  0  0  0
   -4.2989    1.7020    2.6820 C   0  0  0  0  0  0  0  0  0  0  0  0
   -3.4755    2.2193    1.7658 C   0  0  0  0  0  0  0  0  0  0  0  0
   -3.3635    3.5587    1.8058 O   0  0  0  0  0  0  0  0  0  0  0  0
   -4.0330    3.8094    3.0974 C   0  0  0  0  0  0  0  0  0  0  0  0
   -4.8627    2.6489    3.4830 O   0  0  0  0  0  0  0  0  0  0  0  0
   -2.8195    1.4089    0.8610 C   0  0  0  0  0  0  0  0  0  0  0  0
   -2.9776   -0.0111    0.9374 C   0  0  0  0  0  0  0  0  0  0  0  0
   -2.2843   -0.9585   -0.0791 C   0  0  2  0  0  0  0  0  0  0  0  0
   -0.8524   -1.1889   -1.6142 H   0  0  0  0  0  0  0  0  0  0  0  0
    1.3132    2.0142    1.2249 H   0  0  0  0  0  0  0  0  0  0  0  0
    3.2452   -0.3732   -0.1622 H   0  0  0  0  0  0  0  0  0  0  0  0
    2.1582   -0.1192    1.1746 H   0  0  0  0  0  0  0  0  0  0  0  0
    3.7948    1.8775    1.8147 H   0  0  0  0  0  0  0  0  0  0  0  0
    4.8223    1.2173    0.5475 H   0  0  0  0  0  0  0  0  0  0  0  0
    5.4542    0.4822    2.7370 H   0  0  0  0  0  0  0  0  0  0  0  0
    3.8757   -0.2986    2.9669 H   0  0  0  0  0  0  0  0  0  0  0  0
    4.9796   -2.3215    3.4575 H   0  0  0  0  0  0  0  0  0  0  0  0
    6.2839   -2.9814    2.4194 H   0  0  0  0  0  0  0  0  0  0  0  0
    6.5330   -1.4343    3.2542 H   0  0  0  0  0  0  0  0  0  0  0  0
    6.8461   -1.9994    0.5018 H   0  0  0  0  0  0  0  0  0  0  0  0
    6.9550   -0.2796    0.8389 H   0  0  0  0  0  0  0  0  0  0  0  0
    5.8536   -0.9173   -0.4252 H   0  0  0  0  0  0  0  0  0  0  0  0
    3.7839   -2.6281    1.7642 H   0  0  0  0  0  0  0  0  0  0  0  0
    2.1494    2.1780   -2.3447 H   0  0  0  0  0  0  0  0  0  0  0  0
    3.3084    0.8887   -2.0903 H   0  0  0  0  0  0  0  0  0  0  0  0
    6.2110    4.0059   -1.3226 H   0  0  0  0  0  0  0  0  0  0  0  0
    5.4812    4.8521   -2.7462 H   0  0  0  0  0  0  0  0  0  0  0  0
    6.6745    3.5721   -2.9643 H   0  0  0  0  0  0  0  0  0  0  0  0
   -1.1957    1.9140   -4.7052 H   0  0  0  0  0  0  0  0  0  0  0  0
   -0.4386    0.4493   -3.9875 H   0  0  0  0  0  0  0  0  0  0  0  0
   -2.0308    0.3406   -4.7783 H   0  0  0  0  0  0  0  0  0  0  0  0
   -4.2791   -0.2141   -2.7258 H   0  0  0  0  0  0  0  0  0  0  0  0
   -2.2565   -2.5927   -2.5516 H   0  0  0  0  0  0  0  0  0  0  0  0
   -2.3499   -3.4309   -1.0148 H   0  0  0  0  0  0  0  0  0  0  0  0
   -4.3328   -3.2387   -3.1954 H   0  0  0  0  0  0  0  0  0  0  0  0
   -4.3278   -4.4011   -1.8278 H   0  0  0  0  0  0  0  0  0  0  0  0
   -6.0947   -3.1387   -1.0177 H   0  0  0  0  0  0  0  0  0  0  0  0
   -5.7478   -1.7586   -2.1115 H   0  0  0  0  0  0  0  0  0  0  0  0
   -5.0844   -0.9273   -0.0901 H   0  0  0  0  0  0  0  0  0  0  0  0
   -3.6327   -3.4286    0.5955 H   0  0  0  0  0  0  0  0  0  0  0  0
   -5.3644   -3.2737    0.8454 H   0  0  0  0  0  0  0  0  0  0  0  0
   -5.1246   -2.0537    2.6859 H   0  0  0  0  0  0  0  0  0  0  0  0
   -3.4110   -2.4611    2.6302 H   0  0  0  0  0  0  0  0  0  0  0  0
   -5.1832   -0.0603    3.4953 H   0  0  0  0  0  0  0  0  0  0  0  0
   -3.2741    3.9954    3.8767 H   0  0  0  0  0  0  0  0  0  0  0  0
   -4.6632    4.7466    3.0207 H   0  0  0  0  0  0  0  0  0  0  0  0
   -2.1513    1.8140    0.0944 H   0  0  0  0  0  0  0  0  0  0  0  0
   -1.8114   -1.7295    0.4671 H   0  0  0  0  0  0  0  0  0  0  0  0
  1  2  1  0
  2  3  1  0
  3  4  2  0
  3  5  1  0
  5  6  1  1
  5  7  1  0
  7  8  1  0
  8  9  1  0
  9 10  1  0
 10 11  1  0
 10 12  1  0
 10 13  1  0
  5 14  1  0
 14 15  1  0
 15 16  2  0
 15 17  1  0
 17 18  1  0
  1 19  1  0
 19 20  1  0
 20 21  1  0
 19 22  2  0
 23 22  1  6
 23 24  1  0
 24 25  1  0
 25 26  1  0
 26 27  1  0
 27 28  1  0
 28 29  1  0
 29 30  1  0
 30 31  2  0
 31 32  1  0
 32 33  2  0
 33 34  1  0
 34 35  1  0
 35 36  1  0
 33 37  1  0
 37 38  2  0
 38 39  1  0
 39  1  1  0
 27 23  1  0
 38 30  1  0
 39 23  1  0
 36 32  1  0
  1 40  1  6
  6 41  1  0
  7 42  1  0
  7 43  1  0
  8 44  1  0
  8 45  1  0
  9 46  1  0
  9 47  1  0
 11 48  1  0
 11 49  1  0
 11 50  1  0
 12 51  1  0
 12 52  1  0
 12 53  1  0
 13 54  1  0
 14 55  1  0
 14 56  1  0
 18 57  1  0
 18 58  1  0
 18 59  1  0
 21 60  1  0
 21 61  1  0
 21 62  1  0
 22 63  1  0
 24 64  1  0
 24 65  1  0
 25 66  1  0
 25 67  1  0
 26 68  1  0
 26 69  1  0
 27 70  1  1
 28 71  1  0
 28 72  1  0
 29 73  1  0
 29 74  1  0
 31 75  1  0
 35 76  1  0
 35 77  1  0
 37 78  1  0
 39 79  1  1
M  CHG  1  27   1
M  END
>  <conformer_id>  (5) 
1

>  <converged>  (5) 
1

>  <energy_abs>  (5) 
186.02960765139622

>  <cluster_no>  (5) 
5

>  <cluster_centroid>  (5) 
1

>  <rms_to_centroid>  (5) 
0.0

>  <energy_delta>  (5) 
32.816758439672242

$$$$
