DB04865Prodrug
     RDKit          3D

 45 49  0  0  0  0  0  0  0  0999 V2000
    1.2126    1.1508    1.4002 C   0  0  2  0  0  0  0  0  0  0  0  0
    1.8542    1.3611    0.0570 C   0  0  0  0  0  0  0  0  0  0  0  0
    2.2654    2.5564   -0.4832 O   0  0  0  0  0  0  0  0  0  0  0  0
    3.1885    3.3476    0.2513 C   0  0  0  0  0  0  0  0  0  0  0  0
    1.8048    0.2293   -0.6376 C   0  0  0  0  0  0  0  0  0  0  0  0
    1.1510   -0.8431    0.1824 C   0  0  2  0  0  0  0  0  0  0  0  0
    2.2031   -1.6311    0.9695 C   0  0  0  0  0  0  0  0  0  0  0  0
    2.5134   -2.8464    0.0921 C   0  0  0  0  0  0  0  0  0  0  0  0
    1.5517   -2.7531   -1.0897 C   0  0  0  0  0  0  0  0  0  0  0  0
    0.4501   -1.9016   -0.5679 N   0  0  1  0  0  0  0  0  0  0  0  0
   -0.4773   -2.6746    0.3046 C   0  0  0  0  0  0  0  0  0  0  0  0
   -1.8988   -2.1637    0.1926 C   0  0  0  0  0  0  0  0  0  0  0  0
   -2.0062   -0.6862   -0.0098 C   0  0  0  0  0  0  0  0  0  0  0  0
   -3.1994   -0.3557   -0.6830 C   0  0  0  0  0  0  0  0  0  0  0  0
   -3.4672    0.9453   -0.9933 C   0  0  0  0  0  0  0  0  0  0  0  0
   -2.5696    1.9284   -0.6376 C   0  0  0  0  0  0  0  0  0  0  0  0
   -1.4017    1.6441    0.0243 C   0  0  0  0  0  0  0  0  0  0  0  0
   -1.0763    0.3432    0.3615 C   0  0  0  0  0  0  0  0  0  0  0  0
    0.2186    0.0292    1.0658 C   0  0  2  0  0  0  0  0  0  0  0  0
   -3.0194    3.1559   -1.0527 O   0  0  0  0  0  0  0  0  0  0  0  0
   -4.3106    2.8923   -1.6170 C   0  0  0  0  0  0  0  0  0  0  0  0
   -4.5534    1.4793   -1.6614 O   0  0  0  0  0  0  0  0  0  0  0  0
    0.6758    2.2786    2.0087 O   0  0  0  0  0  0  0  0  0  0  0  0
    2.0166    0.7605    2.0603 H   0  0  0  0  0  0  0  0  0  0  0  0
    2.7312    3.7759    1.1460 H   0  0  0  0  0  0  0  0  0  0  0  0
    4.0714    2.7415    0.5140 H   0  0  0  0  0  0  0  0  0  0  0  0
    3.5345    4.1563   -0.4128 H   0  0  0  0  0  0  0  0  0  0  0  0
    2.1443    0.1351   -1.6718 H   0  0  0  0  0  0  0  0  0  0  0  0
    1.7970   -1.9434    1.9384 H   0  0  0  0  0  0  0  0  0  0  0  0
    3.1131   -1.0541    1.1920 H   0  0  0  0  0  0  0  0  0  0  0  0
    3.5672   -2.8354   -0.2254 H   0  0  0  0  0  0  0  0  0  0  0  0
    2.3276   -3.7539    0.6767 H   0  0  0  0  0  0  0  0  0  0  0  0
    1.1776   -3.7282   -1.4223 H   0  0  0  0  0  0  0  0  0  0  0  0
    2.0155   -2.2225   -1.9289 H   0  0  0  0  0  0  0  0  0  0  0  0
   -0.0734   -1.4959   -1.3615 H   0  0  0  0  0  0  0  0  0  0  0  0
   -0.1437   -2.6525    1.3558 H   0  0  0  0  0  0  0  0  0  0  0  0
   -0.4537   -3.7411   -0.0061 H   0  0  0  0  0  0  0  0  0  0  0  0
   -2.4938   -2.4813    1.0712 H   0  0  0  0  0  0  0  0  0  0  0  0
   -2.3493   -2.6783   -0.6886 H   0  0  0  0  0  0  0  0  0  0  0  0
   -3.9484   -1.0895   -1.0071 H   0  0  0  0  0  0  0  0  0  0  0  0
   -0.7473    2.4921    0.2319 H   0  0  0  0  0  0  0  0  0  0  0  0
   -0.0309   -0.4780    2.0001 H   0  0  0  0  0  0  0  0  0  0  0  0
   -5.0814    3.3445   -0.9822 H   0  0  0  0  0  0  0  0  0  0  0  0
   -4.3425    3.2682   -2.6423 H   0  0  0  0  0  0  0  0  0  0  0  0
    0.0592    1.9942    2.6859 H   0  0  0  0  0  0  0  0  0  0  0  0
  1  2  1  0
  2  3  1  0
  3  4  1  0
  2  5  2  0
  6  5  1  6
  6  7  1  0
  7  8  1  0
  8  9  1  0
  9 10  1  0
 10 11  1  0
 11 12  1  0
 12 13  1  0
 13 14  2  0
 14 15  1  0
 15 16  2  0
 16 17  1  0
 17 18  2  0
 18 19  1  0
 16 20  1  0
 20 21  1  0
 21 22  1  0
  1 23  1  0
 19  1  1  0
 10  6  1  0
 19  6  1  0
 18 13  1  0
 22 15  1  0
  1 24  1  1
  4 25  1  0
  4 26  1  0
  4 27  1  0
  5 28  1  0
  7 29  1  0
  7 30  1  0
  8 31  1  0
  8 32  1  0
  9 33  1  0
  9 34  1  0
 10 35  1  6
 11 36  1  0
 11 37  1  0
 12 38  1  0
 12 39  1  0
 14 40  1  0
 17 41  1  0
 19 42  1  1
 21 43  1  0
 21 44  1  0
 23 45  1  0
M  CHG  1  10   1
M  END
>  <conformer_id>  (1) 
5

>  <converged>  (1) 
1

>  <energy_abs>  (1) 
114.64178760842475

>  <cluster_no>  (1) 
1

>  <cluster_centroid>  (1) 
5

>  <rms_to_centroid>  (1) 
0.0

>  <energy_delta>  (1) 
0.2597060052554383

$$$$
DB04865Prodrug
     RDKit          3D

 45 49  0  0  0  0  0  0  0  0999 V2000
    1.2677    1.1541    1.3729 C   0  0  2  0  0  0  0  0  0  0  0  0
    1.8567    1.3987    0.0184 C   0  0  0  0  0  0  0  0  0  0  0  0
    2.2953    2.5885   -0.4534 O   0  0  0  0  0  0  0  0  0  0  0  0
    3.1582    3.4106    0.3381 C   0  0  0  0  0  0  0  0  0  0  0  0
    1.7886    0.2755   -0.6930 C   0  0  0  0  0  0  0  0  0  0  0  0
    1.1706   -0.8097    0.1378 C   0  0  2  0  0  0  0  0  0  0  0  0
    2.2410   -1.6476    0.8494 C   0  0  0  0  0  0  0  0  0  0  0  0
    2.2934   -2.9751    0.0735 C   0  0  0  0  0  0  0  0  0  0  0  0
    1.5017   -2.6957   -1.1885 C   0  0  0  0  0  0  0  0  0  0  0  0
    0.4097   -1.8303   -0.6244 N   0  0  1  0  0  0  0  0  0  0  0  0
   -0.4390   -2.6640    0.3069 C   0  0  0  0  0  0  0  0  0  0  0  0
   -1.8956   -2.1673    0.3003 C   0  0  0  0  0  0  0  0  0  0  0  0
   -2.0024   -0.6848    0.1169 C   0  0  0  0  0  0  0  0  0  0  0  0
   -3.2478   -0.3667   -0.4898 C   0  0  0  0  0  0  0  0  0  0  0  0
   -3.5124    0.9395   -0.8038 C   0  0  0  0  0  0  0  0  0  0  0  0
   -2.6376    1.9076   -0.5145 C   0  0  0  0  0  0  0  0  0  0  0  0
   -1.3956    1.6704    0.1220 C   0  0  0  0  0  0  0  0  0  0  0  0
   -1.0545    0.3512    0.4412 C   0  0  0  0  0  0  0  0  0  0  0  0
    0.2930    0.0616    1.0568 C   0  0  2  0  0  0  0  0  0  0  0  0
   -3.0507    3.1040   -0.9579 O   0  0  0  0  0  0  0  0  0  0  0  0
   -4.1578    2.7797   -1.7984 C   0  0  0  0  0  0  0  0  0  0  0  0
   -4.5936    1.4409   -1.4644 O   0  0  0  0  0  0  0  0  0  0  0  0
    0.7490    2.3083    1.9830 O   0  0  0  0  0  0  0  0  0  0  0  0
    2.0825    0.8106    2.0015 H   0  0  0  0  0  0  0  0  0  0  0  0
    2.6148    3.7116    1.2535 H   0  0  0  0  0  0  0  0  0  0  0  0
    3.4626    4.2998   -0.2359 H   0  0  0  0  0  0  0  0  0  0  0  0
    4.0511    2.8247    0.6068 H   0  0  0  0  0  0  0  0  0  0  0  0
    2.1058    0.2182   -1.7178 H   0  0  0  0  0  0  0  0  0  0  0  0
    3.2454   -1.1695    0.8237 H   0  0  0  0  0  0  0  0  0  0  0  0
    1.9553   -1.8297    1.8882 H   0  0  0  0  0  0  0  0  0  0  0  0
    1.8140   -3.7552    0.6740 H   0  0  0  0  0  0  0  0  0  0  0  0
    3.3295   -3.3272   -0.1157 H   0  0  0  0  0  0  0  0  0  0  0  0
    1.0573   -3.6081   -1.6463 H   0  0  0  0  0  0  0  0  0  0  0  0
    2.0612   -2.1455   -1.9102 H   0  0  0  0  0  0  0  0  0  0  0  0
   -0.1394   -1.4177   -1.3946 H   0  0  0  0  0  0  0  0  0  0  0  0
   -0.4342   -3.6826   -0.0098 H   0  0  0  0  0  0  0  0  0  0  0  0
   -0.0585   -2.5961    1.3164 H   0  0  0  0  0  0  0  0  0  0  0  0
   -2.4007   -2.4706    1.2172 H   0  0  0  0  0  0  0  0  0  0  0  0
   -2.4164   -2.6551   -0.5273 H   0  0  0  0  0  0  0  0  0  0  0  0
   -3.9873   -1.0912   -0.7786 H   0  0  0  0  0  0  0  0  0  0  0  0
   -0.7306    2.5048    0.2805 H   0  0  0  0  0  0  0  0  0  0  0  0
    0.0924   -0.4771    2.0065 H   0  0  0  0  0  0  0  0  0  0  0  0
   -5.0233    3.4942   -1.6371 H   0  0  0  0  0  0  0  0  0  0  0  0
   -3.8118    2.7599   -2.8709 H   0  0  0  0  0  0  0  0  0  0  0  0
    0.0923    2.0522    2.6464 H   0  0  0  0  0  0  0  0  0  0  0  0
  1  2  1  0
  2  3  1  0
  3  4  1  0
  2  5  2  0
  6  5  1  6
  6  7  1  0
  7  8  1  0
  8  9  1  0
  9 10  1  0
 10 11  1  0
 11 12  1  0
 12 13  1  0
 13 14  2  0
 14 15  1  0
 15 16  2  0
 16 17  1  0
 17 18  2  0
 18 19  1  0
 16 20  1  0
 20 21  1  0
 21 22  1  0
  1 23  1  0
 19  1  1  0
 10  6  1  0
 19  6  1  0
 18 13  1  0
 22 15  1  0
  1 24  1  1
  4 25  1  0
  4 26  1  0
  4 27  1  0
  5 28  1  0
  7 29  1  0
  7 30  1  0
  8 31  1  0
  8 32  1  0
  9 33  1  0
  9 34  1  0
 10 35  1  6
 11 36  1  0
 11 37  1  0
 12 38  1  0
 12 39  1  0
 14 40  1  0
 17 41  1  0
 19 42  1  1
 21 43  1  0
 21 44  1  0
 23 45  1  0
M  CHG  1  10   1
M  END
>  <conformer_id>  (2) 
4

>  <converged>  (2) 
1

>  <energy_abs>  (2) 
124.56223522511974

>  <cluster_no>  (2) 
2

>  <cluster_centroid>  (2) 
4

>  <rms_to_centroid>  (2) 
0.0

>  <energy_delta>  (2) 
10.180153621950424

$$$$
DB04865Prodrug
     RDKit          3D

 45 49  0  0  0  0  0  0  0  0999 V2000
    1.1257    1.6046    0.5403 C   0  0  2  0  0  0  0  0  0  0  0  0
    2.5091    1.1056    0.5806 C   0  0  0  0  0  0  0  0  0  0  0  0
    3.6417    1.8774    0.6697 O   0  0  0  0  0  0  0  0  0  0  0  0
    3.5859    3.1615    0.0446 C   0  0  0  0  0  0  0  0  0  0  0  0
    2.5615   -0.2184    0.5660 C   0  0  0  0  0  0  0  0  0  0  0  0
    1.1996   -0.8520    0.5010 C   0  0  2  0  0  0  0  0  0  0  0  0
    1.1867   -1.9380    1.5706 C   0  0  0  0  0  0  0  0  0  0  0  0
    1.7018   -3.1758    0.8725 C   0  0  0  0  0  0  0  0  0  0  0  0
    1.9736   -2.7653   -0.5616 C   0  0  0  0  0  0  0  0  0  0  0  0
    1.1137   -1.5610   -0.7929 N   0  0  1  0  0  0  0  0  0  0  0  0
   -0.1588   -1.9332   -1.4415 C   0  0  0  0  0  0  0  0  0  0  0  0
   -1.3746   -2.0000   -0.5604 C   0  0  0  0  0  0  0  0  0  0  0  0
   -1.8617   -0.6115   -0.2951 C   0  0  0  0  0  0  0  0  0  0  0  0
   -3.1755   -0.3782   -0.7296 C   0  0  0  0  0  0  0  0  0  0  0  0
   -3.7392    0.8672   -0.5481 C   0  0  0  0  0  0  0  0  0  0  0  0
   -3.0329    1.8503    0.0475 C   0  0  0  0  0  0  0  0  0  0  0  0
   -1.7372    1.6650    0.4934 C   0  0  0  0  0  0  0  0  0  0  0  0
   -1.1172    0.4151    0.2959 C   0  0  0  0  0  0  0  0  0  0  0  0
    0.2881    0.3278    0.8180 C   0  0  2  0  0  0  0  0  0  0  0  0
   -3.7687    3.0003    0.1178 O   0  0  0  0  0  0  0  0  0  0  0  0
   -5.0928    2.5625   -0.2786 C   0  0  0  0  0  0  0  0  0  0  0  0
   -4.9881    1.2727   -0.9241 O   0  0  0  0  0  0  0  0  0  0  0  0
    0.8394    2.1990   -0.7064 O   0  0  0  0  0  0  0  0  0  0  0  0
    0.9855    2.3595    1.3185 H   0  0  0  0  0  0  0  0  0  0  0  0
    2.8034    3.7482    0.5337 H   0  0  0  0  0  0  0  0  0  0  0  0
    4.5559    3.6674    0.1882 H   0  0  0  0  0  0  0  0  0  0  0  0
    3.3935    3.0423   -1.0312 H   0  0  0  0  0  0  0  0  0  0  0  0
    3.4848   -0.7649    0.6189 H   0  0  0  0  0  0  0  0  0  0  0  0
    0.1848   -2.0949    1.9864 H   0  0  0  0  0  0  0  0  0  0  0  0
    1.8290   -1.6863    2.4249 H   0  0  0  0  0  0  0  0  0  0  0  0
    0.9691   -3.9828    0.9241 H   0  0  0  0  0  0  0  0  0  0  0  0
    2.6232   -3.5463    1.3304 H   0  0  0  0  0  0  0  0  0  0  0  0
    3.0104   -2.4765   -0.7294 H   0  0  0  0  0  0  0  0  0  0  0  0
    1.7213   -3.5510   -1.2748 H   0  0  0  0  0  0  0  0  0  0  0  0
    1.6153   -0.9820   -1.4939 H   0  0  0  0  0  0  0  0  0  0  0  0
   -0.0222   -2.9083   -1.9155 H   0  0  0  0  0  0  0  0  0  0  0  0
   -0.3368   -1.2309   -2.2658 H   0  0  0  0  0  0  0  0  0  0  0  0
   -2.1473   -2.5463   -1.1275 H   0  0  0  0  0  0  0  0  0  0  0  0
   -1.2289   -2.5740    0.3579 H   0  0  0  0  0  0  0  0  0  0  0  0
   -3.7850   -1.1324   -1.2112 H   0  0  0  0  0  0  0  0  0  0  0  0
   -1.2449    2.5147    0.9685 H   0  0  0  0  0  0  0  0  0  0  0  0
    0.1641    0.3271    1.9052 H   0  0  0  0  0  0  0  0  0  0  0  0
   -5.5319    3.3057   -0.9867 H   0  0  0  0  0  0  0  0  0  0  0  0
   -5.7302    2.4568    0.6321 H   0  0  0  0  0  0  0  0  0  0  0  0
    1.0066    1.5794   -1.4325 H   0  0  0  0  0  0  0  0  0  0  0  0
  1  2  1  0
  2  3  1  0
  3  4  1  0
  2  5  2  0
  6  5  1  6
  6  7  1  0
  7  8  1  0
  8  9  1  0
  9 10  1  0
 10 11  1  0
 11 12  1  0
 12 13  1  0
 13 14  2  0
 14 15  1  0
 15 16  2  0
 16 17  1  0
 17 18  2  0
 18 19  1  0
 16 20  1  0
 20 21  1  0
 21 22  1  0
  1 23  1  0
 19  1  1  0
 10  6  1  0
 19  6  1  0
 18 13  1  0
 22 15  1  0
  1 24  1  1
  4 25  1  0
  4 26  1  0
  4 27  1  0
  5 28  1  0
  7 29  1  0
  7 30  1  0
  8 31  1  0
  8 32  1  0
  9 33  1  0
  9 34  1  0
 10 35  1  6
 11 36  1  0
 11 37  1  0
 12 38  1  0
 12 39  1  0
 14 40  1  0
 17 41  1  0
 19 42  1  1
 21 43  1  0
 21 44  1  0
 23 45  1  0
M  CHG  1  10   1
M  END
>  <conformer_id>  (3) 
3

>  <converged>  (3) 
1

>  <energy_abs>  (3) 
114.38208160316931

>  <cluster_no>  (3) 
3

>  <cluster_centroid>  (3) 
3

>  <rms_to_centroid>  (3) 
0.0

>  <energy_delta>  (3) 
0

$$$$
DB04865Prodrug
     RDKit          3D

 45 49  0  0  0  0  0  0  0  0999 V2000
    1.3312    1.1071    1.2665 C   0  0  2  0  0  0  0  0  0  0  0  0
    1.9066    1.2960   -0.1187 C   0  0  0  0  0  0  0  0  0  0  0  0
    2.4480    2.4250   -0.6591 O   0  0  0  0  0  0  0  0  0  0  0  0
    2.5678    3.6312    0.1400 C   0  0  0  0  0  0  0  0  0  0  0  0
    1.8514    0.1555   -0.8252 C   0  0  0  0  0  0  0  0  0  0  0  0
    1.2643   -0.9504    0.0554 C   0  0  2  0  0  0  0  0  0  0  0  0
    2.3640   -1.5079    0.9754 C   0  0  0  0  0  0  0  0  0  0  0  0
    2.6199   -2.9230    0.5459 C   0  0  0  0  0  0  0  0  0  0  0  0
    1.2677   -3.3562    0.1833 C   0  0  0  0  0  0  0  0  0  0  0  0
    0.8271   -2.2070   -0.6511 N   0  0  1  0  0  0  0  0  0  0  0  0
   -0.5950   -2.4000   -1.2018 C   0  0  0  0  0  0  0  0  0  0  0  0
   -1.6701   -2.1300   -0.1572 C   0  0  0  0  0  0  0  0  0  0  0  0
   -2.0088   -0.6882   -0.2109 C   0  0  0  0  0  0  0  0  0  0  0  0
   -3.2126   -0.3054   -0.7973 C   0  0  0  0  0  0  0  0  0  0  0  0
   -3.4696    0.9962   -0.8971 C   0  0  0  0  0  0  0  0  0  0  0  0
   -2.6007    1.9970   -0.4949 C   0  0  0  0  0  0  0  0  0  0  0  0
   -1.3655    1.6400    0.0521 C   0  0  0  0  0  0  0  0  0  0  0  0
   -1.0345    0.3003    0.2183 C   0  0  0  0  0  0  0  0  0  0  0  0
    0.3045   -0.1240    0.9019 C   0  0  2  0  0  0  0  0  0  0  0  0
   -3.0329    3.2624   -0.7015 O   0  0  0  0  0  0  0  0  0  0  0  0
   -4.4595    2.9270   -0.9655 C   0  0  0  0  0  0  0  0  0  0  0  0
   -4.6605    1.5599   -1.4332 O   0  0  0  0  0  0  0  0  0  0  0  0
    0.7734    2.1786    1.9564 O   0  0  0  0  0  0  0  0  0  0  0  0
    2.1203    0.6594    1.8724 H   0  0  0  0  0  0  0  0  0  0  0  0
    3.0454    4.3586   -0.4611 H   0  0  0  0  0  0  0  0  0  0  0  0
    3.2090    3.4432    1.0036 H   0  0  0  0  0  0  0  0  0  0  0  0
    1.6110    3.9963    0.4174 H   0  0  0  0  0  0  0  0  0  0  0  0
    2.2199    0.0044   -1.8454 H   0  0  0  0  0  0  0  0  0  0  0  0
    2.0227   -1.5092    2.0164 H   0  0  0  0  0  0  0  0  0  0  0  0
    3.2853   -0.8961    0.9373 H   0  0  0  0  0  0  0  0  0  0  0  0
    3.2634   -2.9214   -0.3177 H   0  0  0  0  0  0  0  0  0  0  0  0
    3.0448   -3.5022    1.3350 H   0  0  0  0  0  0  0  0  0  0  0  0
    1.2158   -4.2377   -0.4341 H   0  0  0  0  0  0  0  0  0  0  0  0
    0.5576   -3.4356    1.0565 H   0  0  0  0  0  0  0  0  0  0  0  0
    1.3697   -2.2623   -1.4791 H   0  0  0  0  0  0  0  0  0  0  0  0
   -0.6960   -1.7458   -2.0852 H   0  0  0  0  0  0  0  0  0  0  0  0
   -0.5977   -3.4492   -1.5356 H   0  0  0  0  0  0  0  0  0  0  0  0
   -1.4263   -2.5243    0.8423 H   0  0  0  0  0  0  0  0  0  0  0  0
   -2.5638   -2.7402   -0.5103 H   0  0  0  0  0  0  0  0  0  0  0  0
   -3.8897   -1.0693   -1.1163 H   0  0  0  0  0  0  0  0  0  0  0  0
   -0.7170    2.4267    0.3324 H   0  0  0  0  0  0  0  0  0  0  0  0
    0.0238   -0.6039    1.8299 H   0  0  0  0  0  0  0  0  0  0  0  0
   -5.0085    3.0834   -0.0340 H   0  0  0  0  0  0  0  0  0  0  0  0
   -4.8707    3.6492   -1.6830 H   0  0  0  0  0  0  0  0  0  0  0  0
    1.3652    2.3920    2.6766 H   0  0  0  0  0  0  0  0  0  0  0  0
  1  2  1  0
  2  3  1  0
  3  4  1  0
  2  5  2  0
  6  5  1  6
  6  7  1  0
  7  8  1  0
  8  9  1  0
  9 10  1  0
 10 11  1  0
 11 12  1  0
 12 13  1  0
 13 14  2  0
 14 15  1  0
 15 16  2  0
 16 17  1  0
 17 18  2  0
 18 19  1  0
 16 20  1  0
 20 21  1  0
 21 22  1  0
  1 23  1  0
 19  1  1  0
 10  6  1  0
 19  6  1  0
 18 13  1  0
 22 15  1  0
  1 24  1  1
  4 25  1  0
  4 26  1  0
  4 27  1  0
  5 28  1  0
  7 29  1  0
  7 30  1  0
  8 31  1  0
  8 32  1  0
  9 33  1  0
  9 34  1  0
 10 35  1  6
 11 36  1  0
 11 37  1  0
 12 38  1  0
 12 39  1  0
 14 40  1  0
 17 41  1  0
 19 42  1  1
 21 43  1  0
 21 44  1  0
 23 45  1  0
M  CHG  1  10   1
M  END
>  <conformer_id>  (4) 
2

>  <converged>  (4) 
1

>  <energy_abs>  (4) 
130.85885385009806

>  <cluster_no>  (4) 
4

>  <cluster_centroid>  (4) 
2

>  <rms_to_centroid>  (4) 
0.0

>  <energy_delta>  (4) 
16.476772246928746

$$$$
DB04865Prodrug
     RDKit          3D

 45 49  0  0  0  0  0  0  0  0999 V2000
    1.2294    1.5315    0.1164 C   0  0  2  0  0  0  0  0  0  0  0  0
    2.5864    0.9973    0.3677 C   0  0  0  0  0  0  0  0  0  0  0  0
    3.7601    1.7139    0.3374 O   0  0  0  0  0  0  0  0  0  0  0  0
    3.7464    3.0368   -0.1877 C   0  0  0  0  0  0  0  0  0  0  0  0
    2.5649   -0.2954    0.6329 C   0  0  0  0  0  0  0  0  0  0  0  0
    1.1865   -0.8645    0.5917 C   0  0  2  0  0  0  0  0  0  0  0  0
    1.0309   -1.8366    1.7478 C   0  0  0  0  0  0  0  0  0  0  0  0
    1.6896   -3.1194    1.2256 C   0  0  0  0  0  0  0  0  0  0  0  0
    1.9545   -2.8799   -0.2612 C   0  0  0  0  0  0  0  0  0  0  0  0
    1.0445   -1.7485   -0.5977 N   0  0  1  0  0  0  0  0  0  0  0  0
   -0.3286   -2.2781   -0.8521 C   0  0  0  0  0  0  0  0  0  0  0  0
   -1.0564   -1.3259   -1.7535 C   0  0  0  0  0  0  0  0  0  0  0  0
   -1.6792   -0.2421   -0.9333 C   0  0  0  0  0  0  0  0  0  0  0  0
   -3.0116    0.0349   -1.2993 C   0  0  0  0  0  0  0  0  0  0  0  0
   -3.7307    0.9922   -0.6312 C   0  0  0  0  0  0  0  0  0  0  0  0
   -3.1407    1.6928    0.3751 C   0  0  0  0  0  0  0  0  0  0  0  0
   -1.8361    1.4757    0.7493 C   0  0  0  0  0  0  0  0  0  0  0  0
   -1.0633    0.4858    0.1087 C   0  0  0  0  0  0  0  0  0  0  0  0
    0.3285    0.3927    0.6566 C   0  0  2  0  0  0  0  0  0  0  0  0
   -4.0241    2.5934    0.9074 O   0  0  0  0  0  0  0  0  0  0  0  0
   -5.2909    2.1578    0.3543 C   0  0  0  0  0  0  0  0  0  0  0  0
   -5.0206    1.3653   -0.8245 O   0  0  0  0  0  0  0  0  0  0  0  0
    1.0435    1.7270   -1.2752 O   0  0  0  0  0  0  0  0  0  0  0  0
    1.0636    2.4661    0.6662 H   0  0  0  0  0  0  0  0  0  0  0  0
    3.3752    3.0385   -1.2179 H   0  0  0  0  0  0  0  0  0  0  0  0
    3.1553    3.6875    0.4683 H   0  0  0  0  0  0  0  0  0  0  0  0
    4.7865    3.3915   -0.2213 H   0  0  0  0  0  0  0  0  0  0  0  0
    3.4691   -0.8643    0.8357 H   0  0  0  0  0  0  0  0  0  0  0  0
    1.5388   -1.4646    2.6448 H   0  0  0  0  0  0  0  0  0  0  0  0
   -0.0240   -1.9951    1.9844 H   0  0  0  0  0  0  0  0  0  0  0  0
    1.0001   -3.9550    1.3717 H   0  0  0  0  0  0  0  0  0  0  0  0
    2.6258   -3.3179    1.7526 H   0  0  0  0  0  0  0  0  0  0  0  0
    2.9813   -2.5719   -0.4794 H   0  0  0  0  0  0  0  0  0  0  0  0
    1.6787   -3.7428   -0.8715 H   0  0  0  0  0  0  0  0  0  0  0  0
    1.3819   -1.2565   -1.4384 H   0  0  0  0  0  0  0  0  0  0  0  0
   -0.8698   -2.4291    0.0959 H   0  0  0  0  0  0  0  0  0  0  0  0
   -0.2243   -3.2353   -1.3805 H   0  0  0  0  0  0  0  0  0  0  0  0
   -0.4105   -0.8814   -2.5008 H   0  0  0  0  0  0  0  0  0  0  0  0
   -1.8300   -1.8852   -2.2888 H   0  0  0  0  0  0  0  0  0  0  0  0
   -3.5259   -0.4994   -2.0931 H   0  0  0  0  0  0  0  0  0  0  0  0
   -1.4382    2.0725    1.5722 H   0  0  0  0  0  0  0  0  0  0  0  0
    0.2061    0.6030    1.7333 H   0  0  0  0  0  0  0  0  0  0  0  0
   -5.9124    3.0472    0.0835 H   0  0  0  0  0  0  0  0  0  0  0  0
   -5.7884    1.5224    1.1255 H   0  0  0  0  0  0  0  0  0  0  0  0
    0.7780    2.6629   -1.3974 H   0  0  0  0  0  0  0  0  0  0  0  0
  1  2  1  0
  2  3  1  0
  3  4  1  0
  2  5  2  0
  6  5  1  6
  6  7  1  0
  7  8  1  0
  8  9  1  0
  9 10  1  0
 10 11  1  0
 11 12  1  0
 12 13  1  0
 13 14  2  0
 14 15  1  0
 15 16  2  0
 16 17  1  0
 17 18  2  0
 18 19  1  0
 16 20  1  0
 20 21  1  0
 21 22  1  0
  1 23  1  0
 19  1  1  0
 10  6  1  0
 19  6  1  0
 18 13  1  0
 22 15  1  0
  1 24  1  1
  4 25  1  0
  4 26  1  0
  4 27  1  0
  5 28  1  0
  7 29  1  0
  7 30  1  0
  8 31  1  0
  8 32  1  0
  9 33  1  0
  9 34  1  0
 10 35  1  6
 11 36  1  0
 11 37  1  0
 12 38  1  0
 12 39  1  0
 14 40  1  0
 17 41  1  0
 19 42  1  1
 21 43  1  0
 21 44  1  0
 23 45  1  0
M  CHG  1  10   1
M  END
>  <conformer_id>  (5) 
1

>  <converged>  (5) 
1

>  <energy_abs>  (5) 
102.79859556260467

>  <cluster_no>  (5) 
5

>  <cluster_centroid>  (5) 
1

>  <rms_to_centroid>  (5) 
0.0

>  <energy_delta>  (5) 
-11.583486040564637

$$$$
