
 OpenBabel12271915443D

 24 27  0  0  0  0  0  0  0  0999 V2000
   19.8710  -13.0300   -0.8450 N   0  0  0  0  0  0  0  0  0  0  0  0
   19.6270  -11.7240   -1.2240 C   0  0  0  0  0  0  0  0  0  0  0  0
   18.3890  -11.1640   -1.2290 N   0  0  0  0  0  0  0  0  0  0  0  0
   17.5360  -11.2430   -2.4270 C   0  0  0  0  0  0  0  0  0  0  0  0
   17.5070   -9.9240   -3.2330 C   0  0  0  0  0  0  0  0  0  0  0  0
   17.9390   -8.7470   -2.4250 N   0  0  0  0  0  0  0  0  0  0  0  0
   18.9760   -8.7220   -2.4360 H   0  0  0  0  0  0  0  0  0  0  0  0
   17.6150   -7.8850   -2.8560 H   0  0  0  0  0  0  0  0  0  0  0  0
   17.5060   -8.8240   -0.9980 C   0  0  0  0  0  0  0  0  0  0  0  0
   18.1130  -10.0560   -0.2950 C   0  0  0  0  0  0  0  0  0  0  0  0
   20.7760  -11.1380   -1.4970 N   0  0  0  0  0  0  0  0  0  0  0  0
   21.7650  -12.0570   -1.3030 C   0  0  0  0  0  0  0  0  0  0  0  0
   23.1530  -11.9410   -1.4450 C   0  0  0  0  0  0  0  0  0  0  0  0
   23.9570  -13.0580   -1.1830 C   0  0  0  0  0  0  0  0  0  0  0  0
   23.3900  -14.2600   -0.7890 C   0  0  0  0  0  0  0  0  0  0  0  0
   22.0070  -14.3720   -0.6530 C   0  0  0  0  0  0  0  0  0  0  0  0
   21.2180  -13.2580   -0.9090 C   0  0  0  0  0  0  0  0  0  0  0  0
   18.8670  -14.0210   -0.5190 C   0  0  0  0  0  0  0  0  0  0  0  0
   18.3640  -14.7930   -1.7110 C   0  0  0  0  0  0  0  0  0  0  0  0
   17.0200  -14.7310   -2.0840 C   0  0  0  0  0  0  0  0  0  0  0  0
   16.5390  -15.4640   -3.1650 C   0  0  0  0  0  0  0  0  0  0  0  0
   17.4010  -16.2700   -3.8970 C   0  0  0  0  0  0  0  0  0  0  0  0
   18.7400  -16.3420   -3.5310 C   0  0  0  0  0  0  0  0  0  0  0  0
   19.2120  -15.6110   -2.4490 C   0  0  0  0  0  0  0  0  0  0  0  0
  1 18  1  0  0  0  0
  2  1  1  0  0  0  0
  3  2  1  0  0  0  0
  3 10  1  0  0  0  0
  4  3  1  0  0  0  0
  5  4  1  0  0  0  0
  5  6  1  0  0  0  0
  6  9  1  0  0  0  0
  7  6  1  0  0  0  0
  8  6  1  0  0  0  0
  9 10  1  0  0  0  0
 11 12  2  0  0  0  0
 11  2  2  0  0  0  0
 12 17  1  0  0  0  0
 13 12  1  0  0  0  0
 13 14  1  0  0  0  0
 14 15  2  0  0  0  0
 15 16  1  0  0  0  0
 17  1  1  0  0  0  0
 17 16  2  0  0  0  0
 19 18  1  0  0  0  0
 20 19  1  0  0  0  0
 21 20  2  0  0  0  0
 22 23  2  0  0  0  0
 22 21  1  0  0  0  0
 23 24  1  0  0  0  0
 24 19  2  0  0  0  0
M  END
>  <minimizedAffinity>
-7.93083382

$$$$

 OpenBabel12271915443D

 24 27  0  0  0  0  0  0  0  0999 V2000
   20.1300  -12.5780   -0.7340 N   0  0  0  0  0  0  0  0  0  0  0  0
   19.7990  -11.3340   -1.2370 C   0  0  0  0  0  0  0  0  0  0  0  0
   18.5250  -10.8630   -1.2890 N   0  0  0  0  0  0  0  0  0  0  0  0
   17.6800  -11.1150   -2.4680 C   0  0  0  0  0  0  0  0  0  0  0  0
   17.5620   -9.8870   -3.3990 C   0  0  0  0  0  0  0  0  0  0  0  0
   17.9130   -8.6100   -2.7120 N   0  0  0  0  0  0  0  0  0  0  0  0
   18.9470   -8.5160   -2.7330 H   0  0  0  0  0  0  0  0  0  0  0  0
   17.5320   -7.8180   -3.2240 H   0  0  0  0  0  0  0  0  0  0  0  0
   17.4860   -8.5760   -1.2820 C   0  0  0  0  0  0  0  0  0  0  0  0
   18.1760   -9.6890   -0.4660 C   0  0  0  0  0  0  0  0  0  0  0  0
   20.9060  -10.7030   -1.5730 N   0  0  0  0  0  0  0  0  0  0  0  0
   21.9540  -11.5290   -1.2980 C   0  0  0  0  0  0  0  0  0  0  0  0
   23.3310  -11.3350   -1.4590 C   0  0  0  0  0  0  0  0  0  0  0  0
   24.2090  -12.3640   -1.0940 C   0  0  0  0  0  0  0  0  0  0  0  0
   23.7240  -13.5570   -0.5810 C   0  0  0  0  0  0  0  0  0  0  0  0
   22.3520  -13.7480   -0.4260 C   0  0  0  0  0  0  0  0  0  0  0  0
   21.4890  -12.7200   -0.7840 C   0  0  0  0  0  0  0  0  0  0  0  0
   19.1960  -13.5970   -0.3060 C   0  0  0  0  0  0  0  0  0  0  0  0
   18.6840  -14.4650   -1.4270 C   0  0  0  0  0  0  0  0  0  0  0  0
   19.5560  -15.2830   -2.1490 C   0  0  0  0  0  0  0  0  0  0  0  0
   19.0990  -16.0640   -3.2060 C   0  0  0  0  0  0  0  0  0  0  0  0
   17.7560  -16.0450   -3.5550 C   0  0  0  0  0  0  0  0  0  0  0  0
   16.8810  -15.2310   -2.8460 C   0  0  0  0  0  0  0  0  0  0  0  0
   17.3440  -14.4500   -1.7950 C   0  0  0  0  0  0  0  0  0  0  0  0
  1 18  1  0  0  0  0
  2  1  1  0  0  0  0
  3  2  1  0  0  0  0
  3 10  1  0  0  0  0
  4  3  1  0  0  0  0
  5  6  1  0  0  0  0
  5  4  1  0  0  0  0
  6  9  1  0  0  0  0
  7  6  1  0  0  0  0
  8  6  1  0  0  0  0
  9 10  1  0  0  0  0
 11 12  2  0  0  0  0
 11  2  2  0  0  0  0
 12 17  1  0  0  0  0
 13 12  1  0  0  0  0
 13 14  1  0  0  0  0
 14 15  2  0  0  0  0
 15 16  1  0  0  0  0
 17  1  1  0  0  0  0
 17 16  2  0  0  0  0
 19 18  1  0  0  0  0
 20 19  2  0  0  0  0
 21 20  1  0  0  0  0
 22 21  2  0  0  0  0
 22 23  1  0  0  0  0
 23 24  2  0  0  0  0
 24 19  1  0  0  0  0
M  END
>  <minimizedAffinity>
-7.81384563

$$$$

 OpenBabel12271915443D

 24 27  0  0  0  0  0  0  0  0999 V2000
   20.8630  -11.9270   -1.9870 N   0  0  0  0  0  0  0  0  0  0  0  0
   19.8940  -12.7140   -2.5790 C   0  0  0  0  0  0  0  0  0  0  0  0
   19.2040  -13.6790   -1.9150 N   0  0  0  0  0  0  0  0  0  0  0  0
   19.7140  -15.0590   -1.8580 C   0  0  0  0  0  0  0  0  0  0  0  0
   18.9820  -16.0120   -2.8300 C   0  0  0  0  0  0  0  0  0  0  0  0
   17.6550  -15.4850   -3.2620 N   0  0  0  0  0  0  0  0  0  0  0  0
   17.8190  -14.8240   -4.0450 H   0  0  0  0  0  0  0  0  0  0  0  0
   17.0770  -16.2390   -3.6240 H   0  0  0  0  0  0  0  0  0  0  0  0
   16.9420  -14.7370   -2.1840 C   0  0  0  0  0  0  0  0  0  0  0  0
   17.7510  -13.5040   -1.7300 C   0  0  0  0  0  0  0  0  0  0  0  0
   19.7290  -12.3210   -3.8260 N   0  0  0  0  0  0  0  0  0  0  0  0
   20.5880  -11.2870   -4.0510 C   0  0  0  0  0  0  0  0  0  0  0  0
   20.8000  -10.5150   -5.2000 C   0  0  0  0  0  0  0  0  0  0  0  0
   21.7630   -9.4980   -5.1650 C   0  0  0  0  0  0  0  0  0  0  0  0
   22.4940   -9.2560   -4.0130 C   0  0  0  0  0  0  0  0  0  0  0  0
   22.2830  -10.0300   -2.8720 C   0  0  0  0  0  0  0  0  0  0  0  0
   21.3220  -11.0320   -2.9140 C   0  0  0  0  0  0  0  0  0  0  0  0
   21.3720  -12.0760   -0.6400 C   0  0  0  0  0  0  0  0  0  0  0  0
   22.7890  -12.5860   -0.5780 C   0  0  0  0  0  0  0  0  0  0  0  0
   23.1150  -13.8480   -1.0800 C   0  0  0  0  0  0  0  0  0  0  0  0
   24.4140  -14.3400   -1.0000 C   0  0  0  0  0  0  0  0  0  0  0  0
   25.4140  -13.5720   -0.4200 C   0  0  0  0  0  0  0  0  0  0  0  0
   25.0990  -12.3160    0.0850 C   0  0  0  0  0  0  0  0  0  0  0  0
   23.8000  -11.8320    0.0070 C   0  0  0  0  0  0  0  0  0  0  0  0
  1 18  1  0  0  0  0
  2  1  1  0  0  0  0
  2  3  1  0  0  0  0
  3  4  1  0  0  0  0
  3 10  1  0  0  0  0
  5  4  1  0  0  0  0
  6  5  1  0  0  0  0
  6  9  1  0  0  0  0
  7  6  1  0  0  0  0
  8  6  1  0  0  0  0
  9 10  1  0  0  0  0
 11  2  2  0  0  0  0
 12 11  2  0  0  0  0
 12 17  1  0  0  0  0
 13 14  1  0  0  0  0
 13 12  1  0  0  0  0
 14 15  2  0  0  0  0
 15 16  1  0  0  0  0
 17 16  2  0  0  0  0
 17  1  1  0  0  0  0
 18 19  1  0  0  0  0
 19 24  2  0  0  0  0
 20 21  2  0  0  0  0
 20 19  1  0  0  0  0
 21 22  1  0  0  0  0
 22 23  2  0  0  0  0
 24 23  1  0  0  0  0
M  END
>  <minimizedAffinity>
-7.61637592

$$$$

 OpenBabel12271915443D

 24 27  0  0  0  0  0  0  0  0999 V2000
   20.9710  -12.3740   -1.8280 N   0  0  0  0  0  0  0  0  0  0  0  0
   21.0710  -11.5220   -2.9130 C   0  0  0  0  0  0  0  0  0  0  0  0
   21.8590  -10.4150   -2.9250 N   0  0  0  0  0  0  0  0  0  0  0  0
   21.3340   -9.1170   -2.4700 C   0  0  0  0  0  0  0  0  0  0  0  0
   20.9730   -8.1700   -3.6380 C   0  0  0  0  0  0  0  0  0  0  0  0
   21.6420   -8.5530   -4.9150 N   0  0  0  0  0  0  0  0  0  0  0  0
   21.0730   -9.3010   -5.3560 H   0  0  0  0  0  0  0  0  0  0  0  0
   21.6490   -7.7650   -5.5590 H   0  0  0  0  0  0  0  0  0  0  0  0
   23.0200   -9.0930   -4.7180 C   0  0  0  0  0  0  0  0  0  0  0  0
   23.0000  -10.3750   -3.8590 C   0  0  0  0  0  0  0  0  0  0  0  0
   20.3470  -12.0060   -3.9020 N   0  0  0  0  0  0  0  0  0  0  0  0
   19.7720  -13.1630   -3.4660 C   0  0  0  0  0  0  0  0  0  0  0  0
   18.9260  -14.0620   -4.1270 C   0  0  0  0  0  0  0  0  0  0  0  0
   18.4650  -15.1910   -3.4370 C   0  0  0  0  0  0  0  0  0  0  0  0
   18.8410  -15.4190   -2.1230 C   0  0  0  0  0  0  0  0  0  0  0  0
   19.6810  -14.5190   -1.4670 C   0  0  0  0  0  0  0  0  0  0  0  0
   20.1380  -13.4050   -2.1600 C   0  0  0  0  0  0  0  0  0  0  0  0
   21.5740  -12.1670   -0.5290 C   0  0  0  0  0  0  0  0  0  0  0  0
   23.0370  -12.5260   -0.4720 C   0  0  0  0  0  0  0  0  0  0  0  0
   23.4690  -13.8120   -0.8020 C   0  0  0  0  0  0  0  0  0  0  0  0
   24.8130  -14.1620   -0.7240 C   0  0  0  0  0  0  0  0  0  0  0  0
   25.7530  -13.2240   -0.3180 C   0  0  0  0  0  0  0  0  0  0  0  0
   25.3330  -11.9420    0.0180 C   0  0  0  0  0  0  0  0  0  0  0  0
   23.9890  -11.6010   -0.0580 C   0  0  0  0  0  0  0  0  0  0  0  0
  1 18  1  0  0  0  0
  2  1  1  0  0  0  0
  3  2  1  0  0  0  0
  3  4  1  0  0  0  0
  5  4  1  0  0  0  0
  6  9  1  0  0  0  0
  6  5  1  0  0  0  0
  7  6  1  0  0  0  0
  8  6  1  0  0  0  0
  9 10  1  0  0  0  0
 10  3  1  0  0  0  0
 11 12  2  0  0  0  0
 11  2  2  0  0  0  0
 12 17  1  0  0  0  0
 13 12  1  0  0  0  0
 13 14  1  0  0  0  0
 14 15  2  0  0  0  0
 15 16  1  0  0  0  0
 17  1  1  0  0  0  0
 17 16  2  0  0  0  0
 18 19  1  0  0  0  0
 19 24  2  0  0  0  0
 20 21  2  0  0  0  0
 20 19  1  0  0  0  0
 21 22  1  0  0  0  0
 22 23  2  0  0  0  0
 24 23  1  0  0  0  0
M  END
>  <minimizedAffinity>
-7.55144358

$$$$

 OpenBabel12271915443D

 24 27  0  0  0  0  0  0  0  0999 V2000
   20.5500  -11.8840   -0.9350 N   0  0  0  0  0  0  0  0  0  0  0  0
   21.7070  -11.2160   -1.2860 C   0  0  0  0  0  0  0  0  0  0  0  0
   22.9280  -11.8090   -1.3380 N   0  0  0  0  0  0  0  0  0  0  0  0
   23.7950  -11.8460   -0.1480 C   0  0  0  0  0  0  0  0  0  0  0  0
   24.9360  -10.8050   -0.2010 C   0  0  0  0  0  0  0  0  0  0  0  0
   25.2090  -10.3220   -1.5860 N   0  0  0  0  0  0  0  0  0  0  0  0
   24.5250   -9.5720   -1.7980 H   0  0  0  0  0  0  0  0  0  0  0  0
   26.1350   -9.9050   -1.6370 H   0  0  0  0  0  0  0  0  0  0  0  0
   25.0460  -11.3860   -2.6210 C   0  0  0  0  0  0  0  0  0  0  0  0
   23.6000  -11.9240   -2.6470 C   0  0  0  0  0  0  0  0  0  0  0  0
   21.4000   -9.9760   -1.6110 N   0  0  0  0  0  0  0  0  0  0  0  0
   20.0520   -9.8320   -1.4680 C   0  0  0  0  0  0  0  0  0  0  0  0
   19.2280   -8.7230   -1.6930 C   0  0  0  0  0  0  0  0  0  0  0  0
   17.8510   -8.8430   -1.4610 C   0  0  0  0  0  0  0  0  0  0  0  0
   17.3110  -10.0390   -1.0160 C   0  0  0  0  0  0  0  0  0  0  0  0
   18.1360  -11.1400   -0.7890 C   0  0  0  0  0  0  0  0  0  0  0  0
   19.4990  -11.0140   -1.0280 C   0  0  0  0  0  0  0  0  0  0  0  0
   20.4690  -13.2500   -0.4610 C   0  0  0  0  0  0  0  0  0  0  0  0
   19.9260  -14.2170   -1.4820 C   0  0  0  0  0  0  0  0  0  0  0  0
   20.7710  -14.8050   -2.4260 C   0  0  0  0  0  0  0  0  0  0  0  0
   20.2750  -15.6760   -3.3920 C   0  0  0  0  0  0  0  0  0  0  0  0
   18.9200  -15.9790   -3.4240 C   0  0  0  0  0  0  0  0  0  0  0  0
   18.0700  -15.3950   -2.4920 C   0  0  0  0  0  0  0  0  0  0  0  0
   18.5710  -14.5240   -1.5340 C   0  0  0  0  0  0  0  0  0  0  0  0
  1 18  1  0  0  0  0
  2  1  1  0  0  0  0
  3  2  1  0  0  0  0
  3  4  1  0  0  0  0
  5  4  1  0  0  0  0
  6  5  1  0  0  0  0
  7  6  1  0  0  0  0
  8  6  1  0  0  0  0
  9  6  1  0  0  0  0
 10  9  1  0  0  0  0
 10  3  1  0  0  0  0
 11 12  2  0  0  0  0
 11  2  2  0  0  0  0
 12 17  1  0  0  0  0
 13 12  1  0  0  0  0
 13 14  1  0  0  0  0
 14 15  2  0  0  0  0
 15 16  1  0  0  0  0
 17  1  1  0  0  0  0
 17 16  2  0  0  0  0
 19 18  1  0  0  0  0
 20 19  2  0  0  0  0
 21 20  1  0  0  0  0
 22 21  2  0  0  0  0
 22 23  1  0  0  0  0
 23 24  2  0  0  0  0
 24 19  1  0  0  0  0
M  END
>  <minimizedAffinity>
-7.24045849

$$$$

 OpenBabel12271915443D

 24 27  0  0  0  0  0  0  0  0999 V2000
   21.4670  -11.6420   -2.5570 N   0  0  0  0  0  0  0  0  0  0  0  0
   20.4980  -11.2150   -3.4450 C   0  0  0  0  0  0  0  0  0  0  0  0
   20.4310   -9.9450   -3.9250 N   0  0  0  0  0  0  0  0  0  0  0  0
   19.6550   -8.9160   -3.2130 C   0  0  0  0  0  0  0  0  0  0  0  0
   18.2890   -8.6260   -3.8760 C   0  0  0  0  0  0  0  0  0  0  0  0
   18.2330   -9.0720   -5.2980 N   0  0  0  0  0  0  0  0  0  0  0  0
   18.0110  -10.0860   -5.3000 H   0  0  0  0  0  0  0  0  0  0  0  0
   17.4770   -8.6000   -5.7860 H   0  0  0  0  0  0  0  0  0  0  0  0
   19.5280   -8.8940   -6.0200 C   0  0  0  0  0  0  0  0  0  0  0  0
   20.6520   -9.7260   -5.3670 C   0  0  0  0  0  0  0  0  0  0  0  0
   19.7380  -12.2400   -3.7710 N   0  0  0  0  0  0  0  0  0  0  0  0
   20.2020  -13.3310   -3.0970 C   0  0  0  0  0  0  0  0  0  0  0  0
   19.7560  -14.6580   -3.1000 C   0  0  0  0  0  0  0  0  0  0  0  0
   20.4180  -15.5970   -2.2990 C   0  0  0  0  0  0  0  0  0  0  0  0
   21.4990  -15.2220   -1.5170 C   0  0  0  0  0  0  0  0  0  0  0  0
   21.9370  -13.8980   -1.5130 C   0  0  0  0  0  0  0  0  0  0  0  0
   21.2780  -12.9750   -2.3150 C   0  0  0  0  0  0  0  0  0  0  0  0
   22.4620  -10.8070   -1.9190 C   0  0  0  0  0  0  0  0  0  0  0  0
   23.8260  -10.8900   -2.5540 C   0  0  0  0  0  0  0  0  0  0  0  0
   24.9730  -11.0090   -1.7670 C   0  0  0  0  0  0  0  0  0  0  0  0
   26.2390  -11.0560   -2.3430 C   0  0  0  0  0  0  0  0  0  0  0  0
   26.3780  -10.9900   -3.7230 C   0  0  0  0  0  0  0  0  0  0  0  0
   25.2430  -10.8660   -4.5150 C   0  0  0  0  0  0  0  0  0  0  0  0
   23.9830  -10.8160   -3.9340 C   0  0  0  0  0  0  0  0  0  0  0  0
  1 17  1  0  0  0  0
  1 18  1  0  0  0  0
  2  1  1  0  0  0  0
  3  2  1  0  0  0  0
  3  4  1  0  0  0  0
  5  4  1  0  0  0  0
  6  5  1  0  0  0  0
  7  6  1  0  0  0  0
  8  6  1  0  0  0  0
  9 10  1  0  0  0  0
  9  6  1  0  0  0  0
 10  3  1  0  0  0  0
 11  2  2  0  0  0  0
 11 12  2  0  0  0  0
 12 17  1  0  0  0  0
 13 12  1  0  0  0  0
 13 14  1  0  0  0  0
 14 15  2  0  0  0  0
 15 16  1  0  0  0  0
 17 16  2  0  0  0  0
 19 18  1  0  0  0  0
 19 20  2  0  0  0  0
 21 20  1  0  0  0  0
 22 21  2  0  0  0  0
 23 24  2  0  0  0  0
 23 22  1  0  0  0  0
 24 19  1  0  0  0  0
M  END
>  <minimizedAffinity>
-7.18887186

$$$$

 OpenBabel12271915443D

 24 27  0  0  0  0  0  0  0  0999 V2000
   18.9250  -13.6220   -1.4130 N   0  0  0  0  0  0  0  0  0  0  0  0
   20.2750  -13.7360   -1.6890 C   0  0  0  0  0  0  0  0  0  0  0  0
   21.2320  -13.0010   -1.0640 N   0  0  0  0  0  0  0  0  0  0  0  0
   21.6460  -11.6960   -1.6050 C   0  0  0  0  0  0  0  0  0  0  0  0
   22.9960  -11.7560   -2.3560 C   0  0  0  0  0  0  0  0  0  0  0  0
   23.8040  -12.9560   -1.9900 N   0  0  0  0  0  0  0  0  0  0  0  0
   23.4600  -13.7520   -2.5610 H   0  0  0  0  0  0  0  0  0  0  0  0
   24.7800  -12.8120   -2.2370 H   0  0  0  0  0  0  0  0  0  0  0  0
   23.6680  -13.3400   -0.5540 C   0  0  0  0  0  0  0  0  0  0  0  0
   22.2080  -13.7000   -0.2070 C   0  0  0  0  0  0  0  0  0  0  0  0
   20.4470  -14.6940   -2.5770 N   0  0  0  0  0  0  0  0  0  0  0  0
   19.2200  -15.2000   -2.8850 C   0  0  0  0  0  0  0  0  0  0  0  0
   18.8550  -16.2300   -3.7600 C   0  0  0  0  0  0  0  0  0  0  0  0
   17.4980  -16.5540   -3.8970 C   0  0  0  0  0  0  0  0  0  0  0  0
   16.5320  -15.8690   -3.1790 C   0  0  0  0  0  0  0  0  0  0  0  0
   16.8990  -14.8410   -2.3110 C   0  0  0  0  0  0  0  0  0  0  0  0
   18.2460  -14.5300   -2.1770 C   0  0  0  0  0  0  0  0  0  0  0  0
   18.3190  -12.6480   -0.5300 C   0  0  0  0  0  0  0  0  0  0  0  0
   18.0290  -11.3250   -1.1910 C   0  0  0  0  0  0  0  0  0  0  0  0
   18.1010  -11.1910   -2.5790 C   0  0  0  0  0  0  0  0  0  0  0  0
   17.8640   -9.9660   -3.1970 C   0  0  0  0  0  0  0  0  0  0  0  0
   17.5440   -8.8530   -2.4320 C   0  0  0  0  0  0  0  0  0  0  0  0
   17.4740   -8.9750   -1.0490 C   0  0  0  0  0  0  0  0  0  0  0  0
   17.7160  -10.1980   -0.4390 C   0  0  0  0  0  0  0  0  0  0  0  0
  1 18  1  0  0  0  0
  2  1  1  0  0  0  0
  2  3  1  0  0  0  0
  3 10  1  0  0  0  0
  4  3  1  0  0  0  0
  5  6  1  0  0  0  0
  5  4  1  0  0  0  0
  6  9  1  0  0  0  0
  7  6  1  0  0  0  0
  8  6  1  0  0  0  0
  9 10  1  0  0  0  0
 11  2  2  0  0  0  0
 12 11  2  0  0  0  0
 12 17  1  0  0  0  0
 13 12  1  0  0  0  0
 14 13  1  0  0  0  0
 14 15  2  0  0  0  0
 15 16  1  0  0  0  0
 16 17  2  0  0  0  0
 17  1  1  0  0  0  0
 19 18  1  0  0  0  0
 19 24  2  0  0  0  0
 20 19  1  0  0  0  0
 21 20  2  0  0  0  0
 21 22  1  0  0  0  0
 22 23  2  0  0  0  0
 23 24  1  0  0  0  0
M  END
>  <minimizedAffinity>
-7.10983515

$$$$

 OpenBabel12271915443D

 24 27  0  0  0  0  0  0  0  0999 V2000
   19.7390  -12.0800   -2.0190 N   0  0  0  0  0  0  0  0  0  0  0  0
   18.6120  -11.4850   -2.5540 C   0  0  0  0  0  0  0  0  0  0  0  0
   18.4060  -10.1420   -2.5620 N   0  0  0  0  0  0  0  0  0  0  0  0
   17.7230   -9.4830   -1.4360 C   0  0  0  0  0  0  0  0  0  0  0  0
   16.2500   -9.1310   -1.7470 C   0  0  0  0  0  0  0  0  0  0  0  0
   15.9650   -9.0940   -3.2110 N   0  0  0  0  0  0  0  0  0  0  0  0
   15.7900  -10.0690   -3.5220 H   0  0  0  0  0  0  0  0  0  0  0  0
   15.1150   -8.5660   -3.3920 H   0  0  0  0  0  0  0  0  0  0  0  0
   17.1040   -8.5620   -4.0180 C   0  0  0  0  0  0  0  0  0  0  0  0
   18.3600   -9.4450   -3.8610 C   0  0  0  0  0  0  0  0  0  0  0  0
   17.8510  -12.4200   -3.0890 N   0  0  0  0  0  0  0  0  0  0  0  0
   18.4730  -13.6180   -2.9000 C   0  0  0  0  0  0  0  0  0  0  0  0
   18.0920  -14.9090   -3.2830 C   0  0  0  0  0  0  0  0  0  0  0  0
   18.9250  -15.9870   -2.9560 C   0  0  0  0  0  0  0  0  0  0  0  0
   20.1090  -15.7810   -2.2650 C   0  0  0  0  0  0  0  0  0  0  0  0
   20.4830  -14.4940   -1.8820 C   0  0  0  0  0  0  0  0  0  0  0  0
   19.6540  -13.4300   -2.2160 C   0  0  0  0  0  0  0  0  0  0  0  0
   20.7930  -11.4020   -1.2950 C   0  0  0  0  0  0  0  0  0  0  0  0
   22.0860  -11.2900   -2.0620 C   0  0  0  0  0  0  0  0  0  0  0  0
   22.1300  -10.6270   -3.2910 C   0  0  0  0  0  0  0  0  0  0  0  0
   23.3110  -10.5450   -4.0210 C   0  0  0  0  0  0  0  0  0  0  0  0
   24.4740  -11.1210   -3.5290 C   0  0  0  0  0  0  0  0  0  0  0  0
   24.4400  -11.7870   -2.3100 C   0  0  0  0  0  0  0  0  0  0  0  0
   23.2570  -11.8700   -1.5880 C   0  0  0  0  0  0  0  0  0  0  0  0
  1 18  1  0  0  0  0
  2  1  1  0  0  0  0
  3  2  1  0  0  0  0
  3  4  1  0  0  0  0
  5  4  1  0  0  0  0
  6  5  1  0  0  0  0
  7  6  1  0  0  0  0
  8  6  1  0  0  0  0
  9 10  1  0  0  0  0
  9  6  1  0  0  0  0
 10  3  1  0  0  0  0
 11 12  2  0  0  0  0
 11  2  2  0  0  0  0
 12 17  1  0  0  0  0
 13 14  1  0  0  0  0
 13 12  1  0  0  0  0
 14 15  2  0  0  0  0
 15 16  1  0  0  0  0
 17  1  1  0  0  0  0
 17 16  2  0  0  0  0
 19 24  1  0  0  0  0
 19 18  1  0  0  0  0
 20 19  2  0  0  0  0
 21 22  2  0  0  0  0
 21 20  1  0  0  0  0
 22 23  1  0  0  0  0
 23 24  2  0  0  0  0
M  END
>  <minimizedAffinity>
-7.0971899

$$$$

 OpenBabel12271915443D

 24 27  0  0  0  0  0  0  0  0999 V2000
   21.0760  -11.6230   -1.9860 N   0  0  0  0  0  0  0  0  0  0  0  0
   20.3140  -11.2240   -3.0680 C   0  0  0  0  0  0  0  0  0  0  0  0
   20.2490   -9.9380   -3.5040 N   0  0  0  0  0  0  0  0  0  0  0  0
   19.2350   -9.0150   -2.9670 C   0  0  0  0  0  0  0  0  0  0  0  0
   18.0470   -8.7970   -3.9320 C   0  0  0  0  0  0  0  0  0  0  0  0
   18.3760   -9.1650   -5.3400 N   0  0  0  0  0  0  0  0  0  0  0  0
   18.2530  -10.1910   -5.4320 H   0  0  0  0  0  0  0  0  0  0  0  0
   17.7190   -8.7270   -5.9810 H   0  0  0  0  0  0  0  0  0  0  0  0
   19.7840   -8.8440   -5.7170 C   0  0  0  0  0  0  0  0  0  0  0  0
   20.7890   -9.6200   -4.8390 C   0  0  0  0  0  0  0  0  0  0  0  0
   19.7500  -12.2860   -3.6070 N   0  0  0  0  0  0  0  0  0  0  0  0
   20.1350  -13.3730   -2.8790 C   0  0  0  0  0  0  0  0  0  0  0  0
   19.8250  -14.7290   -3.0390 C   0  0  0  0  0  0  0  0  0  0  0  0
   20.3580  -15.6570   -2.1340 C   0  0  0  0  0  0  0  0  0  0  0  0
   21.1800  -15.2430   -1.0990 C   0  0  0  0  0  0  0  0  0  0  0  0
   21.4830  -13.8900   -0.9410 C   0  0  0  0  0  0  0  0  0  0  0  0
   20.9550  -12.9780   -1.8460 C   0  0  0  0  0  0  0  0  0  0  0  0
   21.8080  -10.7490   -1.0940 C   0  0  0  0  0  0  0  0  0  0  0  0
   23.3010  -10.9520   -1.1340 C   0  0  0  0  0  0  0  0  0  0  0  0
   24.0010  -10.8610   -2.3390 C   0  0  0  0  0  0  0  0  0  0  0  0
   25.3750  -11.0760   -2.3910 C   0  0  0  0  0  0  0  0  0  0  0  0
   26.0750  -11.3810   -1.2310 C   0  0  0  0  0  0  0  0  0  0  0  0
   25.3870  -11.4780   -0.0270 C   0  0  0  0  0  0  0  0  0  0  0  0
   24.0150  -11.2670    0.0170 C   0  0  0  0  0  0  0  0  0  0  0  0
  1 17  1  0  0  0  0
  1 18  1  0  0  0  0
  2  1  1  0  0  0  0
  3  2  1  0  0  0  0
  3  4  1  0  0  0  0
  5  4  1  0  0  0  0
  6  5  1  0  0  0  0
  7  6  1  0  0  0  0
  8  6  1  0  0  0  0
  9  6  1  0  0  0  0
  9 10  1  0  0  0  0
 10  3  1  0  0  0  0
 11  2  2  0  0  0  0
 11 12  2  0  0  0  0
 12 17  1  0  0  0  0
 13 12  1  0  0  0  0
 13 14  1  0  0  0  0
 14 15  2  0  0  0  0
 15 16  1  0  0  0  0
 17 16  2  0  0  0  0
 19 18  1  0  0  0  0
 19 24  2  0  0  0  0
 20 19  1  0  0  0  0
 21 20  2  0  0  0  0
 21 22  1  0  0  0  0
 22 23  2  0  0  0  0
 23 24  1  0  0  0  0
M  END
>  <minimizedAffinity>
-7.04099369

$$$$
