
 OpenBabel12271914423D

 42 46  0  0  1  0  0  0  0  0999 V2000
  -20.6470  -26.0880   -9.1800 C   0  0  1  0  0  0  0  0  0  0  0  0
  -20.5860  -26.7070  -10.5690 C   0  0  1  0  0  0  0  0  0  0  0  0
  -19.2390  -27.0410  -11.0520 C   0  0  0  0  0  0  0  0  0  0  0  0
  -18.3900  -25.9370  -11.1180 C   0  0  0  0  0  0  0  0  0  0  0  0
  -17.0700  -26.0860  -11.5630 C   0  0  0  0  0  0  0  0  0  0  0  0
  -16.0730  -25.1420  -11.7040 O   0  0  0  0  0  0  0  0  0  0  0  0
  -14.9590  -25.7770  -12.3550 C   0  0  0  0  0  0  0  0  0  0  0  0
  -15.2670  -27.1790  -12.3360 O   0  0  0  0  0  0  0  0  0  0  0  0
  -16.5910  -27.2720  -11.9320 C   0  0  0  0  0  0  0  0  0  0  0  0
  -17.4160  -28.3860  -11.8740 C   0  0  0  0  0  0  0  0  0  0  0  0
  -18.7450  -28.2610  -11.4370 C   0  0  0  0  0  0  0  0  0  0  0  0
  -19.4390  -29.5660  -11.4390 C   0  0  0  0  0  0  0  0  0  0  0  0
  -20.0980  -29.7320  -10.1140 C   0  0  0  0  0  0  0  0  0  0  0  0
  -21.3700  -29.0490   -9.9420 N   0  0  2  0  0  0  0  0  0  0  0  0
  -21.5540  -28.9870   -8.9440 H   0  0  0  0  0  0  0  0  0  0  0  0
  -22.4210  -29.9070  -10.5240 C   0  0  0  0  0  0  0  0  0  0  0  0
  -22.8470  -29.2830  -11.8320 C   0  0  0  0  0  0  0  0  0  0  0  0
  -22.1850  -27.9370  -11.9230 C   0  0  0  0  0  0  0  0  0  0  0  0
  -21.6170  -27.7560  -10.5520 C   0  0  2  0  0  0  0  0  0  0  0  0
  -22.6690  -27.1100   -9.7260 C   0  0  0  0  0  0  0  0  0  0  0  0
  -22.1360  -26.1630   -8.9560 C   0  0  2  0  0  0  0  0  0  0  0  0
  -22.8040  -25.3490   -8.0980 O   0  0  0  0  0  0  0  0  0  0  0  0
  -23.5620  -25.9540   -7.0250 C   0  0  0  0  0  0  0  0  0  0  0  0
  -20.0260  -26.9440   -8.1930 O   0  0  0  0  0  0  0  0  0  0  0  0
  -19.5500  -26.3390   -7.0570 C   0  0  0  0  0  0  0  0  0  0  0  0
  -20.2300  -25.7770   -6.2710 O   0  0  0  0  0  0  0  0  0  0  0  0
  -18.0440  -26.3880   -6.7870 C   0  0  2  0  0  0  0  0  0  0  0  0
  -17.5760  -27.6510   -7.1840 O   0  0  0  0  0  0  0  0  0  0  0  0
  -18.3060  -28.2930   -7.2550 H   0  0  0  0  0  0  0  0  0  0  0  0
  -17.7380  -26.0650   -5.3460 C   0  0  0  0  0  0  0  0  0  0  0  0
  -16.9720  -27.1350   -4.5830 C   0  0  0  0  0  0  0  0  0  0  0  0
  -17.4140  -27.5150   -3.5440 O   0  0  0  0  0  0  0  0  0  0  0  0
  -15.8070  -27.6340   -5.1020 O   0  0  0  0  0  0  0  0  0  0  0  0
  -14.9500  -28.3470   -4.1590 C   0  0  0  0  0  0  0  0  0  0  0  0
  -17.4250  -25.3340   -7.6900 C   0  0  0  0  0  0  0  0  0  0  0  0
  -15.9880  -24.9720   -7.4120 C   0  0  0  0  0  0  0  0  0  0  0  0
  -15.0410  -25.1310   -8.5880 C   0  0  0  0  0  0  0  0  0  0  0  0
  -14.1170  -26.2990   -8.3080 C   0  0  0  0  0  0  0  0  0  0  0  0
  -14.6390  -27.5980   -8.8860 C   0  0  0  0  0  0  0  0  0  0  0  0
  -12.7440  -26.0370   -8.8740 C   0  0  0  0  0  0  0  0  0  0  0  0
  -13.9840  -26.4260   -6.9070 O   0  0  0  0  0  0  0  0  0  0  0  0
  -13.3490  -25.7500   -6.6340 H   0  0  0  0  0  0  0  0  0  0  0  0
  1 21  1  0  0  0  0
  1 24  1  1  0  0  0
  2 19  1  1  0  0  0
  2  1  1  0  0  0  0
  3  2  1  0  0  0  0
  4  3  1  0  0  0  0
  5  4  1  0  0  0  0
  6  5  1  0  0  0  0
  7  8  1  0  0  0  0
  7  6  1  0  0  0  0
  8  9  1  0  0  0  0
  9 10  1  0  0  0  0
  9  5  2  0  0  0  0
 10 11  1  0  0  0  0
 11  3  2  0  0  0  0
 12 11  1  0  0  0  0
 12 13  1  0  0  0  0
 13 14  1  0  0  0  0
 14 19  1  6  0  0  0
 14 15  1  0  0  0  0
 16 14  1  0  0  0  0
 17 16  1  0  0  0  0
 18 17  1  0  0  0  0
 19 18  1  6  0  0  0
 19 20  1  0  0  0  0
 20 21  1  0  0  0  0
 21 22  1  6  0  0  0
 22 23  1  0  0  0  0
 24 25  1  0  0  0  0
 25 27  1  0  0  0  0
 25 26  2  0  0  0  0
 27 35  1  6  0  0  0
 27 30  1  0  0  0  0
 28 27  1  0  0  0  0
 29 28  1  0  0  0  0
 30 31  1  0  0  0  0
 31 32  2  0  0  0  0
 33 31  1  0  0  0  0
 33 34  1  0  0  0  0
 35 36  1  0  0  0  0
 37 38  1  0  0  0  0
 37 36  1  0  0  0  0
 38 41  1  0  0  0  0
 39 38  1  0  0  0  0
 40 38  1  0  0  0  0
 41 42  1  0  0  0  0
M  END
>  <minimizedAffinity>
-8.50401688

$$$$

 OpenBabel12271914423D

 42 46  0  0  1  0  0  0  0  0999 V2000
  -16.2000  -26.6280  -11.9540 C   0  0  1  0  0  0  0  0  0  0  0  0
  -16.5890  -25.8920  -10.6810 C   0  0  1  0  0  0  0  0  0  0  0  0
  -17.9740  -26.0920  -10.2350 C   0  0  0  0  0  0  0  0  0  0  0  0
  -18.9190  -25.6910  -11.1790 C   0  0  0  0  0  0  0  0  0  0  0  0
  -20.2880  -25.8120  -10.9060 C   0  0  0  0  0  0  0  0  0  0  0  0
  -21.3770  -25.4830  -11.6870 O   0  0  0  0  0  0  0  0  0  0  0  0
  -22.5570  -25.6460  -10.8810 C   0  0  0  0  0  0  0  0  0  0  0  0
  -22.1100  -26.3330   -9.7020 O   0  0  0  0  0  0  0  0  0  0  0  0
  -20.7240  -26.3090   -9.7510 C   0  0  0  0  0  0  0  0  0  0  0  0
  -19.8040  -26.7170   -8.7950 C   0  0  0  0  0  0  0  0  0  0  0  0
  -18.4260  -26.5990   -9.0440 C   0  0  0  0  0  0  0  0  0  0  0  0
  -17.6290  -27.1030   -7.9060 C   0  0  0  0  0  0  0  0  0  0  0  0
  -16.6050  -28.0390   -8.4480 C   0  0  0  0  0  0  0  0  0  0  0  0
  -15.4160  -27.4260   -9.0190 N   0  0  2  0  0  0  0  0  0  0  0  0
  -14.9630  -28.1220   -9.6050 H   0  0  0  0  0  0  0  0  0  0  0  0
  -14.4910  -27.1250   -7.9080 C   0  0  0  0  0  0  0  0  0  0  0  0
  -14.5240  -25.6330   -7.6790 C   0  0  0  0  0  0  0  0  0  0  0  0
  -15.3230  -25.0250   -8.7970 C   0  0  0  0  0  0  0  0  0  0  0  0
  -15.4910  -26.1710   -9.7420 C   0  0  2  0  0  0  0  0  0  0  0  0
  -14.3210  -26.1580  -10.6570 C   0  0  0  0  0  0  0  0  0  0  0  0
  -14.7090  -26.4050  -11.9070 C   0  0  2  0  0  0  0  0  0  0  0  0
  -13.9140  -26.4380  -13.0080 O   0  0  0  0  0  0  0  0  0  0  0  0
  -14.4030  -25.8400  -14.2300 C   0  0  0  0  0  0  0  0  0  0  0  0
  -16.4200  -28.0520  -11.8290 O   0  0  0  0  0  0  0  0  0  0  0  0
  -16.7620  -28.7310  -12.9710 C   0  0  0  0  0  0  0  0  0  0  0  0
  -16.0230  -28.9280  -13.8720 O   0  0  0  0  0  0  0  0  0  0  0  0
  -18.1910  -29.2670  -13.0940 C   0  0  2  0  0  0  0  0  0  0  0  0
  -18.1230  -30.5410  -13.6810 O   0  0  0  0  0  0  0  0  0  0  0  0
  -17.2720  -30.6780  -14.1350 H   0  0  0  0  0  0  0  0  0  0  0  0
  -19.0700  -28.3060  -13.8550 C   0  0  0  0  0  0  0  0  0  0  0  0
  -19.6080  -28.8210  -15.1820 C   0  0  0  0  0  0  0  0  0  0  0  0
  -18.8470  -28.9570  -16.0870 O   0  0  0  0  0  0  0  0  0  0  0  0
  -20.9400  -29.1170  -15.3030 O   0  0  0  0  0  0  0  0  0  0  0  0
  -21.2710  -30.5390  -15.3320 C   0  0  0  0  0  0  0  0  0  0  0  0
  -18.7040  -29.4140  -11.6710 C   0  0  0  0  0  0  0  0  0  0  0  0
  -19.9980  -30.1680  -11.4990 C   0  0  0  0  0  0  0  0  0  0  0  0
  -20.8400  -29.7430  -10.3090 C   0  0  0  0  0  0  0  0  0  0  0  0
  -22.2980  -29.7630  -10.7210 C   0  0  0  0  0  0  0  0  0  0  0  0
  -22.5220  -29.1310  -12.0790 C   0  0  0  0  0  0  0  0  0  0  0  0
  -22.8220  -31.1770  -10.7550 C   0  0  0  0  0  0  0  0  0  0  0  0
  -23.0390  -29.0580   -9.7450 O   0  0  0  0  0  0  0  0  0  0  0  0
  -23.1540  -29.6650   -9.0020 H   0  0  0  0  0  0  0  0  0  0  0  0
  1 21  1  0  0  0  0
  1 24  1  1  0  0  0
  1  2  1  0  0  0  0
  2  3  1  0  0  0  0
  2 19  1  1  0  0  0
  3 11  2  0  0  0  0
  4  5  1  0  0  0  0
  4  3  1  0  0  0  0
  5  9  2  0  0  0  0
  6  5  1  0  0  0  0
  6  7  1  0  0  0  0
  7  8  1  0  0  0  0
  9  8  1  0  0  0  0
  9 10  1  0  0  0  0
 11 10  1  0  0  0  0
 11 12  1  0  0  0  0
 13 12  1  0  0  0  0
 14 19  1  6  0  0  0
 14 13  1  0  0  0  0
 14 16  1  0  0  0  0
 15 14  1  0  0  0  0
 16 17  1  0  0  0  0
 18 17  1  0  0  0  0
 19 20  1  6  0  0  0
 19 18  1  0  0  0  0
 21 22  1  6  0  0  0
 21 20  1  0  0  0  0
 23 22  1  0  0  0  0
 25 24  1  0  0  0  0
 26 25  2  0  0  0  0
 27 30  1  6  0  0  0
 27 25  1  0  0  0  0
 27 35  1  0  0  0  0
 28 27  1  0  0  0  0
 29 28  1  0  0  0  0
 31 30  1  0  0  0  0
 32 31  2  0  0  0  0
 33 31  1  0  0  0  0
 34 33  1  0  0  0  0
 35 36  1  0  0  0  0
 36 37  1  0  0  0  0
 38 37  1  0  0  0  0
 38 41  1  0  0  0  0
 39 38  1  0  0  0  0
 40 38  1  0  0  0  0
 41 42  1  0  0  0  0
M  END
>  <minimizedAffinity>
-7.81463766

$$$$

 OpenBabel12271914423D

 42 46  0  0  1  0  0  0  0  0999 V2000
  -18.0850  -26.2350   -9.8710 C   0  0  1  0  0  0  0  0  0  0  0  0
  -16.8100  -25.7370   -9.2070 C   0  0  1  0  0  0  0  0  0  0  0  0
  -16.5120  -26.3250   -7.8940 C   0  0  0  0  0  0  0  0  0  0  0  0
  -17.5140  -26.0990   -6.9510 C   0  0  0  0  0  0  0  0  0  0  0  0
  -17.3800  -26.5920   -5.6460 C   0  0  0  0  0  0  0  0  0  0  0  0
  -18.2380  -26.4880   -4.5700 O   0  0  0  0  0  0  0  0  0  0  0  0
  -17.5600  -27.0180   -3.4180 C   0  0  0  0  0  0  0  0  0  0  0  0
  -16.3900  -27.6660   -3.9400 O   0  0  0  0  0  0  0  0  0  0  0  0
  -16.3060  -27.2830   -5.2710 C   0  0  0  0  0  0  0  0  0  0  0  0
  -15.2950  -27.5210   -6.1910 C   0  0  0  0  0  0  0  0  0  0  0  0
  -15.4030  -27.0310   -7.5040 C   0  0  0  0  0  0  0  0  0  0  0  0
  -14.2290  -27.4090   -8.3180 C   0  0  0  0  0  0  0  0  0  0  0  0
  -14.7300  -28.0000   -9.5900 C   0  0  0  0  0  0  0  0  0  0  0  0
  -15.1450  -27.0550  -10.6150 N   0  0  2  0  0  0  0  0  0  0  0  0
  -15.7290  -27.5580  -11.2780 H   0  0  0  0  0  0  0  0  0  0  0  0
  -13.9350  -26.6230  -11.3420 C   0  0  0  0  0  0  0  0  0  0  0  0
  -13.6160  -25.2150  -10.8990 C   0  0  0  0  0  0  0  0  0  0  0  0
  -14.7640  -24.7390  -10.0550 C   0  0  0  0  0  0  0  0  0  0  0  0
  -15.7910  -25.8040  -10.2660 C   0  0  2  0  0  0  0  0  0  0  0  0
  -16.5880  -25.4110  -11.4560 C   0  0  0  0  0  0  0  0  0  0  0  0
  -17.8830  -25.6410  -11.2420 C   0  0  2  0  0  0  0  0  0  0  0  0
  -18.9030  -25.3740  -12.0980 O   0  0  0  0  0  0  0  0  0  0  0  0
  -20.2520  -25.3530  -11.5780 C   0  0  0  0  0  0  0  0  0  0  0  0
  -18.0730  -27.6740  -10.0260 O   0  0  0  0  0  0  0  0  0  0  0  0
  -19.2850  -28.3140   -9.9880 C   0  0  0  0  0  0  0  0  0  0  0  0
  -20.1170  -28.1100   -9.1740 O   0  0  0  0  0  0  0  0  0  0  0  0
  -19.5850  -29.3620  -11.0630 C   0  0  2  0  0  0  0  0  0  0  0  0
  -18.9040  -30.5400  -10.7180 O   0  0  0  0  0  0  0  0  0  0  0  0
  -18.1890  -30.3620  -10.0800 H   0  0  0  0  0  0  0  0  0  0  0  0
  -19.2330  -28.8490  -12.4370 C   0  0  0  0  0  0  0  0  0  0  0  0
  -17.9350  -29.3850  -13.0220 C   0  0  0  0  0  0  0  0  0  0  0  0
  -17.9810  -30.3660  -13.6960 O   0  0  0  0  0  0  0  0  0  0  0  0
  -16.7570  -28.7340  -12.7670 O   0  0  0  0  0  0  0  0  0  0  0  0
  -16.0660  -28.1990  -13.9370 C   0  0  0  0  0  0  0  0  0  0  0  0
  -21.0800  -29.6240  -10.9820 C   0  0  0  0  0  0  0  0  0  0  0  0
  -21.5940  -30.8200  -11.7430 C   0  0  0  0  0  0  0  0  0  0  0  0
  -22.8550  -31.4510  -11.1800 C   0  0  0  0  0  0  0  0  0  0  0  0
  -23.9750  -31.2640  -12.1830 C   0  0  0  0  0  0  0  0  0  0  0  0
  -24.9170  -30.1440  -11.7920 C   0  0  0  0  0  0  0  0  0  0  0  0
  -23.4180  -30.9680  -13.5530 C   0  0  0  0  0  0  0  0  0  0  0  0
  -24.6950  -32.4770  -12.2690 O   0  0  0  0  0  0  0  0  0  0  0  0
  -24.1730  -33.0610  -12.8350 H   0  0  0  0  0  0  0  0  0  0  0  0
  1 24  1  6  0  0  0
  1  2  1  0  0  0  0
  2 19  1  6  0  0  0
  2  3  1  0  0  0  0
  3 11  2  0  0  0  0
  3  4  1  0  0  0  0
  4  5  1  0  0  0  0
  5  9  2  0  0  0  0
  5  6  1  0  0  0  0
  6  7  1  0  0  0  0
  8  7  1  0  0  0  0
  9  8  1  0  0  0  0
 10  9  1  0  0  0  0
 11 10  1  0  0  0  0
 12 11  1  0  0  0  0
 13 12  1  0  0  0  0
 14 19  1  1  0  0  0
 14 13  1  0  0  0  0
 15 14  1  0  0  0  0
 16 17  1  0  0  0  0
 16 14  1  0  0  0  0
 17 18  1  0  0  0  0
 19 20  1  6  0  0  0
 19 18  1  0  0  0  0
 20 21  1  0  0  0  0
 21 22  1  1  0  0  0
 21  1  1  0  0  0  0
 22 23  1  0  0  0  0
 24 25  1  0  0  0  0
 25 26  2  0  0  0  0
 27 30  1  6  0  0  0
 27 35  1  0  0  0  0
 27 28  1  0  0  0  0
 27 25  1  0  0  0  0
 28 29  1  0  0  0  0
 31 33  1  0  0  0  0
 31 30  1  0  0  0  0
 32 31  2  0  0  0  0
 34 33  1  0  0  0  0
 36 37  1  0  0  0  0
 36 35  1  0  0  0  0
 38 39  1  0  0  0  0
 38 37  1  0  0  0  0
 40 38  1  0  0  0  0
 41 38  1  0  0  0  0
 42 41  1  0  0  0  0
M  END
>  <minimizedAffinity>
-7.59918642

$$$$

 OpenBabel12271914423D

 42 46  0  0  1  0  0  0  0  0999 V2000
  -15.9920  -26.5310  -12.1550 C   0  0  1  0  0  0  0  0  0  0  0  0
  -16.3970  -25.8590  -10.8510 C   0  0  1  0  0  0  0  0  0  0  0  0
  -17.7760  -26.1120  -10.4130 C   0  0  0  0  0  0  0  0  0  0  0  0
  -18.7320  -25.6940  -11.3390 C   0  0  0  0  0  0  0  0  0  0  0  0
  -20.0970  -25.8610  -11.0700 C   0  0  0  0  0  0  0  0  0  0  0  0
  -21.1950  -25.5250  -11.8350 O   0  0  0  0  0  0  0  0  0  0  0  0
  -22.3690  -25.7510  -11.0360 C   0  0  0  0  0  0  0  0  0  0  0  0
  -21.9040  -26.4760   -9.8870 O   0  0  0  0  0  0  0  0  0  0  0  0
  -20.5180  -26.4170   -9.9360 C   0  0  0  0  0  0  0  0  0  0  0  0
  -19.5870  -26.8410   -8.9990 C   0  0  0  0  0  0  0  0  0  0  0  0
  -18.2130  -26.6800   -9.2440 C   0  0  0  0  0  0  0  0  0  0  0  0
  -17.4010  -27.2110   -8.1290 C   0  0  0  0  0  0  0  0  0  0  0  0
  -16.3560  -28.0980   -8.7100 C   0  0  0  0  0  0  0  0  0  0  0  0
  -15.1840  -27.4330   -9.2560 N   0  0  2  0  0  0  0  0  0  0  0  0
  -14.7150  -28.0920   -9.8720 H   0  0  0  0  0  0  0  0  0  0  0  0
  -14.2640  -27.1560   -8.1350 C   0  0  0  0  0  0  0  0  0  0  0  0
  -14.3330  -25.6760   -7.8430 C   0  0  0  0  0  0  0  0  0  0  0  0
  -15.1490  -25.0420   -8.9330 C   0  0  0  0  0  0  0  0  0  0  0  0
  -15.2910  -26.1510   -9.9260 C   0  0  2  0  0  0  0  0  0  0  0  0
  -14.1230  -26.0710  -10.8400 C   0  0  0  0  0  0  0  0  0  0  0  0
  -14.5070  -26.2740  -12.1000 C   0  0  2  0  0  0  0  0  0  0  0  0
  -13.7130  -26.2420  -13.2010 O   0  0  0  0  0  0  0  0  0  0  0  0
  -14.2820  -25.7760  -14.4460 C   0  0  0  0  0  0  0  0  0  0  0  0
  -16.1770  -27.9650  -12.0900 O   0  0  0  0  0  0  0  0  0  0  0  0
  -16.5420  -28.5980  -13.2500 C   0  0  0  0  0  0  0  0  0  0  0  0
  -15.8000  -28.8320  -14.1400 O   0  0  0  0  0  0  0  0  0  0  0  0
  -18.0020  -29.0280  -13.4120 C   0  0  2  0  0  0  0  0  0  0  0  0
  -18.6680  -28.0270  -14.1380 O   0  0  0  0  0  0  0  0  0  0  0  0
  -18.1730  -27.1880  -14.1210 H   0  0  0  0  0  0  0  0  0  0  0  0
  -18.6370  -29.3160  -12.0750 C   0  0  0  0  0  0  0  0  0  0  0  0
  -20.1350  -29.5820  -12.1050 C   0  0  0  0  0  0  0  0  0  0  0  0
  -20.8440  -28.7730  -12.6140 O   0  0  0  0  0  0  0  0  0  0  0  0
  -20.6290  -30.7350  -11.5530 O   0  0  0  0  0  0  0  0  0  0  0  0
  -21.9890  -30.6500  -11.0280 C   0  0  0  0  0  0  0  0  0  0  0  0
  -17.9720  -30.2960  -14.2490 C   0  0  0  0  0  0  0  0  0  0  0  0
  -18.8340  -30.3050  -15.4860 C   0  0  0  0  0  0  0  0  0  0  0  0
  -20.0420  -31.2220  -15.4250 C   0  0  0  0  0  0  0  0  0  0  0  0
  -21.2750  -30.4190  -15.7870 C   0  0  0  0  0  0  0  0  0  0  0  0
  -21.6880  -30.6170  -17.2310 C   0  0  0  0  0  0  0  0  0  0  0  0
  -22.4340  -30.7950  -14.8980 C   0  0  0  0  0  0  0  0  0  0  0  0
  -20.9900  -29.0530  -15.5620 O   0  0  0  0  0  0  0  0  0  0  0  0
  -21.0760  -28.9130  -14.6090 H   0  0  0  0  0  0  0  0  0  0  0  0
  1 21  1  0  0  0  0
  1 24  1  1  0  0  0
  1  2  1  0  0  0  0
  2  3  1  0  0  0  0
  2 19  1  1  0  0  0
  3 11  2  0  0  0  0
  4  5  1  0  0  0  0
  4  3  1  0  0  0  0
  5  9  2  0  0  0  0
  6  5  1  0  0  0  0
  6  7  1  0  0  0  0
  7  8  1  0  0  0  0
  9  8  1  0  0  0  0
  9 10  1  0  0  0  0
 11 10  1  0  0  0  0
 11 12  1  0  0  0  0
 13 12  1  0  0  0  0
 14 19  1  6  0  0  0
 14 13  1  0  0  0  0
 14 16  1  0  0  0  0
 15 14  1  0  0  0  0
 16 17  1  0  0  0  0
 18 17  1  0  0  0  0
 19 20  1  6  0  0  0
 19 18  1  0  0  0  0
 21 22  1  6  0  0  0
 21 20  1  0  0  0  0
 23 22  1  0  0  0  0
 25 24  1  0  0  0  0
 26 25  2  0  0  0  0
 27 35  1  6  0  0  0
 27 25  1  0  0  0  0
 27 30  1  0  0  0  0
 28 29  1  0  0  0  0
 28 27  1  0  0  0  0
 31 30  1  0  0  0  0
 31 33  1  0  0  0  0
 32 31  2  0  0  0  0
 33 34  1  0  0  0  0
 36 37  1  0  0  0  0
 36 35  1  0  0  0  0
 38 41  1  0  0  0  0
 38 37  1  0  0  0  0
 38 40  1  0  0  0  0
 39 38  1  0  0  0  0
 41 42  1  0  0  0  0
M  END
>  <minimizedAffinity>
-7.59709549

$$$$

 OpenBabel12271914423D

 42 46  0  0  1  0  0  0  0  0999 V2000
  -17.9270  -27.3900   -8.7000 C   0  0  1  0  0  0  0  0  0  0  0  0
  -16.5690  -27.8070   -9.2460 C   0  0  1  0  0  0  0  0  0  0  0  0
  -16.4890  -27.9340  -10.7070 C   0  0  0  0  0  0  0  0  0  0  0  0
  -17.3830  -28.8710  -11.2260 C   0  0  0  0  0  0  0  0  0  0  0  0
  -17.4300  -29.1150  -12.6060 C   0  0  0  0  0  0  0  0  0  0  0  0
  -18.2270  -29.9840  -13.3220 O   0  0  0  0  0  0  0  0  0  0  0  0
  -17.7670  -29.9760  -14.6840 C   0  0  0  0  0  0  0  0  0  0  0  0
  -16.8530  -28.8710  -14.7620 O   0  0  0  0  0  0  0  0  0  0  0  0
  -16.6330  -28.4680  -13.4520 C   0  0  0  0  0  0  0  0  0  0  0  0
  -15.7350  -27.5310  -12.9610 C   0  0  0  0  0  0  0  0  0  0  0  0
  -15.6660  -27.2730  -11.5810 C   0  0  0  0  0  0  0  0  0  0  0  0
  -14.6590  -26.2350  -11.2770 C   0  0  0  0  0  0  0  0  0  0  0  0
  -15.3020  -25.2240  -10.3930 C   0  0  0  0  0  0  0  0  0  0  0  0
  -15.3840  -25.5670   -8.9830 N   0  0  2  0  0  0  0  0  0  0  0  0
  -16.0870  -24.9660   -8.5600 H   0  0  0  0  0  0  0  0  0  0  0  0
  -14.0890  -25.2230   -8.3620 C   0  0  0  0  0  0  0  0  0  0  0  0
  -13.3490  -26.5140   -8.1050 C   0  0  0  0  0  0  0  0  0  0  0  0
  -14.3010  -27.6410   -8.3920 C   0  0  0  0  0  0  0  0  0  0  0  0
  -15.6080  -26.9340   -8.5540 C   0  0  2  0  0  0  0  0  0  0  0  0
  -16.2240  -26.8420   -7.2050 C   0  0  0  0  0  0  0  0  0  0  0  0
  -17.5290  -27.1060   -7.2740 C   0  0  2  0  0  0  0  0  0  0  0  0
  -18.4000  -27.1440   -6.2330 O   0  0  0  0  0  0  0  0  0  0  0  0
  -18.2450  -26.1760   -5.1700 C   0  0  0  0  0  0  0  0  0  0  0  0
  -18.3650  -26.1370   -9.2750 O   0  0  0  0  0  0  0  0  0  0  0  0
  -19.4320  -26.1870  -10.1360 C   0  0  0  0  0  0  0  0  0  0  0  0
  -19.3330  -26.2370  -11.3130 O   0  0  0  0  0  0  0  0  0  0  0  0
  -20.8430  -26.1760   -9.5430 C   0  0  2  0  0  0  0  0  0  0  0  0
  -21.2150  -27.5060   -9.2910 O   0  0  0  0  0  0  0  0  0  0  0  0
  -20.6620  -28.1310   -9.7950 H   0  0  0  0  0  0  0  0  0  0  0  0
  -21.8080  -25.4470  -10.4450 C   0  0  0  0  0  0  0  0  0  0  0  0
  -22.8370  -26.3220  -11.1450 C   0  0  0  0  0  0  0  0  0  0  0  0
  -23.7950  -26.6720  -10.5300 O   0  0  0  0  0  0  0  0  0  0  0  0
  -22.6440  -26.6800  -12.4530 O   0  0  0  0  0  0  0  0  0  0  0  0
  -22.1310  -28.0310  -12.6670 C   0  0  0  0  0  0  0  0  0  0  0  0
  -20.7300  -25.4440   -8.2160 C   0  0  0  0  0  0  0  0  0  0  0  0
  -21.6300  -25.9250   -7.1050 C   0  0  0  0  0  0  0  0  0  0  0  0
  -22.9780  -25.2320   -7.0210 C   0  0  0  0  0  0  0  0  0  0  0  0
  -24.0590  -26.2920   -6.9450 C   0  0  0  0  0  0  0  0  0  0  0  0
  -24.2770  -26.7920   -5.5320 C   0  0  0  0  0  0  0  0  0  0  0  0
  -25.3660  -25.7560   -7.4730 C   0  0  0  0  0  0  0  0  0  0  0  0
  -23.6750  -27.3710   -7.7730 O   0  0  0  0  0  0  0  0  0  0  0  0
  -23.8830  -27.1030   -8.6780 H   0  0  0  0  0  0  0  0  0  0  0  0
  1 24  1  6  0  0  0
  1 21  1  0  0  0  0
  2  1  1  0  0  0  0
  2 19  1  6  0  0  0
  3  2  1  0  0  0  0
  4  3  1  0  0  0  0
  5  4  1  0  0  0  0
  6  5  1  0  0  0  0
  7  6  1  0  0  0  0
  8  7  1  0  0  0  0
  8  9  1  0  0  0  0
  9 10  1  0  0  0  0
  9  5  2  0  0  0  0
 10 11  1  0  0  0  0
 11 12  1  0  0  0  0
 11  3  2  0  0  0  0
 12 13  1  0  0  0  0
 13 14  1  0  0  0  0
 14 15  1  0  0  0  0
 14 19  1  1  0  0  0
 14 16  1  0  0  0  0
 16 17  1  0  0  0  0
 18 17  1  0  0  0  0
 19 18  1  1  0  0  0
 19 20  1  0  0  0  0
 21 20  1  0  0  0  0
 21 22  1  1  0  0  0
 22 23  1  0  0  0  0
 25 27  1  0  0  0  0
 25 24  1  0  0  0  0
 26 25  2  0  0  0  0
 27 30  1  6  0  0  0
 27 28  1  0  0  0  0
 27 35  1  0  0  0  0
 29 28  1  0  0  0  0
 31 32  2  0  0  0  0
 31 30  1  0  0  0  0
 33 31  1  0  0  0  0
 34 33  1  0  0  0  0
 35 36  1  0  0  0  0
 36 37  1  0  0  0  0
 37 38  1  0  0  0  0
 38 39  1  0  0  0  0
 40 38  1  0  0  0  0
 41 38  1  0  0  0  0
 42 41  1  0  0  0  0
M  END
>  <minimizedAffinity>
-7.58564711

$$$$

 OpenBabel12271914423D

 42 46  0  0  1  0  0  0  0  0999 V2000
  -17.7420  -26.1680  -10.0910 C   0  0  1  0  0  0  0  0  0  0  0  0
  -16.5230  -25.6690   -9.3300 C   0  0  1  0  0  0  0  0  0  0  0  0
  -16.3350  -26.2460   -7.9930 C   0  0  0  0  0  0  0  0  0  0  0  0
  -17.4090  -26.0080   -7.1360 C   0  0  0  0  0  0  0  0  0  0  0  0
  -17.3850  -26.4900   -5.8200 C   0  0  0  0  0  0  0  0  0  0  0  0
  -18.3270  -26.3720   -4.8190 O   0  0  0  0  0  0  0  0  0  0  0  0
  -17.7470  -26.8950   -3.6110 C   0  0  0  0  0  0  0  0  0  0  0  0
  -16.5420  -27.5520   -4.0300 O   0  0  0  0  0  0  0  0  0  0  0  0
  -16.3470  -27.1810   -5.3530 C   0  0  0  0  0  0  0  0  0  0  0  0
  -15.2670  -27.4320   -6.1860 C   0  0  0  0  0  0  0  0  0  0  0  0
  -15.2660  -26.9540   -7.5080 C   0  0  0  0  0  0  0  0  0  0  0  0
  -14.0310  -27.3440   -8.2210 C   0  0  0  0  0  0  0  0  0  0  0  0
  -14.4300  -27.9440   -9.5240 C   0  0  0  0  0  0  0  0  0  0  0  0
  -14.7560  -27.0070  -10.5870 N   0  0  2  0  0  0  0  0  0  0  0  0
  -15.2870  -27.5130  -11.2910 H   0  0  0  0  0  0  0  0  0  0  0  0
  -13.4890  -26.5870  -11.2170 C   0  0  0  0  0  0  0  0  0  0  0  0
  -13.1990  -25.1760  -10.7620 C   0  0  0  0  0  0  0  0  0  0  0  0
  -14.4090  -24.6880  -10.0180 C   0  0  0  0  0  0  0  0  0  0  0  0
  -15.4220  -25.7500  -10.3020 C   0  0  2  0  0  0  0  0  0  0  0  0
  -16.1180  -25.3640  -11.5570 C   0  0  0  0  0  0  0  0  0  0  0  0
  -17.4270  -25.5870  -11.4460 C   0  0  2  0  0  0  0  0  0  0  0  0
  -18.3720  -25.3230  -12.3850 O   0  0  0  0  0  0  0  0  0  0  0  0
  -18.1490  -25.7870  -13.7360 C   0  0  0  0  0  0  0  0  0  0  0  0
  -17.7240  -27.6070  -10.2320 O   0  0  0  0  0  0  0  0  0  0  0  0
  -18.8340  -28.2880   -9.8010 C   0  0  0  0  0  0  0  0  0  0  0  0
  -19.2500  -28.2460   -8.6950 O   0  0  0  0  0  0  0  0  0  0  0  0
  -19.5860  -29.1620  -10.8080 C   0  0  2  0  0  0  0  0  0  0  0  0
  -19.1220  -30.4800  -10.6660 O   0  0  0  0  0  0  0  0  0  0  0  0
  -18.2640  -30.5050  -10.2040 H   0  0  0  0  0  0  0  0  0  0  0  0
  -19.4380  -28.6270  -12.2110 C   0  0  0  0  0  0  0  0  0  0  0  0
  -18.5450  -29.4430  -13.1330 C   0  0  0  0  0  0  0  0  0  0  0  0
  -17.4630  -29.7530  -12.7440 O   0  0  0  0  0  0  0  0  0  0  0  0
  -19.0000  -29.8020  -14.3740 O   0  0  0  0  0  0  0  0  0  0  0  0
  -18.9680  -31.2320  -14.6680 C   0  0  0  0  0  0  0  0  0  0  0  0
  -21.0470  -29.1130  -10.3930 C   0  0  0  0  0  0  0  0  0  0  0  0
  -21.8440  -27.9310  -10.8820 C   0  0  0  0  0  0  0  0  0  0  0  0
  -22.7220  -27.2660   -9.8370 C   0  0  0  0  0  0  0  0  0  0  0  0
  -22.2610  -25.8330   -9.6620 C   0  0  0  0  0  0  0  0  0  0  0  0
  -21.3950  -25.6530   -8.4320 C   0  0  0  0  0  0  0  0  0  0  0  0
  -21.4830  -25.3740  -10.8700 C   0  0  0  0  0  0  0  0  0  0  0  0
  -23.4070  -25.0130   -9.5560 O   0  0  0  0  0  0  0  0  0  0  0  0
  -23.7330  -24.8870  -10.4570 H   0  0  0  0  0  0  0  0  0  0  0  0
  1 24  1  6  0  0  0
  1  2  1  0  0  0  0
  2 19  1  6  0  0  0
  2  3  1  0  0  0  0
  3 11  2  0  0  0  0
  3  4  1  0  0  0  0
  4  5  1  0  0  0  0
  5  9  2  0  0  0  0
  5  6  1  0  0  0  0
  6  7  1  0  0  0  0
  8  7  1  0  0  0  0
  9  8  1  0  0  0  0
 10  9  1  0  0  0  0
 11 10  1  0  0  0  0
 12 11  1  0  0  0  0
 13 12  1  0  0  0  0
 14 19  1  1  0  0  0
 14 13  1  0  0  0  0
 15 14  1  0  0  0  0
 16 17  1  0  0  0  0
 16 14  1  0  0  0  0
 17 18  1  0  0  0  0
 19 20  1  6  0  0  0
 19 18  1  0  0  0  0
 20 21  1  0  0  0  0
 21 22  1  1  0  0  0
 21  1  1  0  0  0  0
 23 22  1  0  0  0  0
 24 25  1  0  0  0  0
 25 26  2  0  0  0  0
 27 30  1  6  0  0  0
 27 28  1  0  0  0  0
 27 35  1  0  0  0  0
 27 25  1  0  0  0  0
 28 29  1  0  0  0  0
 31 32  2  0  0  0  0
 31 30  1  0  0  0  0
 33 31  1  0  0  0  0
 34 33  1  0  0  0  0
 36 35  1  0  0  0  0
 36 37  1  0  0  0  0
 37 38  1  0  0  0  0
 38 41  1  0  0  0  0
 38 39  1  0  0  0  0
 40 38  1  0  0  0  0
 42 41  1  0  0  0  0
M  END
>  <minimizedAffinity>
-7.50613689

$$$$

 OpenBabel12271914423D

 42 46  0  0  1  0  0  0  0  0999 V2000
  -17.5970  -27.3700   -8.6900 C   0  0  1  0  0  0  0  0  0  0  0  0
  -16.2910  -27.7950   -9.3440 C   0  0  1  0  0  0  0  0  0  0  0  0
  -16.3050  -27.8330  -10.8130 C   0  0  0  0  0  0  0  0  0  0  0  0
  -17.2610  -28.7060  -11.3310 C   0  0  0  0  0  0  0  0  0  0  0  0
  -17.4000  -28.8620  -12.7170 C   0  0  0  0  0  0  0  0  0  0  0  0
  -18.2700  -29.6590  -13.4330 O   0  0  0  0  0  0  0  0  0  0  0  0
  -17.8930  -29.5800  -14.8180 C   0  0  0  0  0  0  0  0  0  0  0  0
  -16.9460  -28.5030  -14.8860 O   0  0  0  0  0  0  0  0  0  0  0  0
  -16.6330  -28.1890  -13.5710 C   0  0  0  0  0  0  0  0  0  0  0  0
  -15.6740  -27.3140  -13.0810 C   0  0  0  0  0  0  0  0  0  0  0  0
  -15.5120  -27.1450  -11.6960 C   0  0  0  0  0  0  0  0  0  0  0  0
  -14.4520  -26.1610  -11.3930 C   0  0  0  0  0  0  0  0  0  0  0  0
  -15.0040  -25.1870  -10.4110 C   0  0  0  0  0  0  0  0  0  0  0  0
  -15.0130  -25.6150   -9.0210 N   0  0  2  0  0  0  0  0  0  0  0  0
  -15.6670  -25.0190   -8.5200 H   0  0  0  0  0  0  0  0  0  0  0  0
  -13.6710  -25.3520   -8.4640 C   0  0  0  0  0  0  0  0  0  0  0  0
  -12.9630  -26.6800   -8.3320 C   0  0  0  0  0  0  0  0  0  0  0  0
  -13.9700  -27.7550   -8.6260 C   0  0  0  0  0  0  0  0  0  0  0  0
  -15.2590  -26.9980   -8.6630 C   0  0  2  0  0  0  0  0  0  0  0  0
  -15.7890  -26.9720   -7.2750 C   0  0  0  0  0  0  0  0  0  0  0  0
  -17.1030  -27.1880   -7.2770 C   0  0  2  0  0  0  0  0  0  0  0  0
  -17.9110  -27.2640   -6.1880 O   0  0  0  0  0  0  0  0  0  0  0  0
  -17.9260  -26.1510   -5.2650 C   0  0  0  0  0  0  0  0  0  0  0  0
  -18.0250  -26.0700   -9.1600 O   0  0  0  0  0  0  0  0  0  0  0  0
  -19.0940  -26.0400  -10.0190 C   0  0  0  0  0  0  0  0  0  0  0  0
  -19.0110  -25.8020  -11.1730 O   0  0  0  0  0  0  0  0  0  0  0  0
  -20.4870  -26.3280   -9.4510 C   0  0  2  0  0  0  0  0  0  0  0  0
  -21.4240  -25.6500  -10.2470 O   0  0  0  0  0  0  0  0  0  0  0  0
  -21.0020  -24.9430  -10.7680 H   0  0  0  0  0  0  0  0  0  0  0  0
  -20.5670  -25.9600   -7.9910 C   0  0  0  0  0  0  0  0  0  0  0  0
  -21.9120  -25.4230   -7.5240 C   0  0  0  0  0  0  0  0  0  0  0  0
  -21.9670  -24.3020   -7.1260 O   0  0  0  0  0  0  0  0  0  0  0  0
  -23.0180  -26.2300   -7.5740 O   0  0  0  0  0  0  0  0  0  0  0  0
  -23.7380  -26.3920   -6.3130 C   0  0  0  0  0  0  0  0  0  0  0  0
  -20.7010  -27.8230   -9.6150 C   0  0  0  0  0  0  0  0  0  0  0  0
  -21.7660  -28.2450  -10.5950 C   0  0  0  0  0  0  0  0  0  0  0  0
  -21.2520  -28.7320  -11.9390 C   0  0  0  0  0  0  0  0  0  0  0  0
  -21.4440  -30.2330  -12.0130 C   0  0  0  0  0  0  0  0  0  0  0  0
  -22.6100  -30.7060  -11.1700 C   0  0  0  0  0  0  0  0  0  0  0  0
  -21.6720  -30.6700  -13.4380 C   0  0  0  0  0  0  0  0  0  0  0  0
  -20.2550  -30.8500  -11.5620 O   0  0  0  0  0  0  0  0  0  0  0  0
  -19.6330  -30.8090  -12.3010 H   0  0  0  0  0  0  0  0  0  0  0  0
  1 24  1  6  0  0  0
  1 21  1  0  0  0  0
  2  1  1  0  0  0  0
  2 19  1  6  0  0  0
  3  2  1  0  0  0  0
  4  3  1  0  0  0  0
  5  4  1  0  0  0  0
  6  5  1  0  0  0  0
  7  6  1  0  0  0  0
  8  7  1  0  0  0  0
  8  9  1  0  0  0  0
  9 10  1  0  0  0  0
  9  5  2  0  0  0  0
 10 11  1  0  0  0  0
 11 12  1  0  0  0  0
 11  3  2  0  0  0  0
 12 13  1  0  0  0  0
 13 14  1  0  0  0  0
 14 19  1  1  0  0  0
 14 15  1  0  0  0  0
 14 16  1  0  0  0  0
 16 17  1  0  0  0  0
 18 17  1  0  0  0  0
 19 18  1  6  0  0  0
 19 20  1  0  0  0  0
 21 20  1  0  0  0  0
 21 22  1  1  0  0  0
 22 23  1  0  0  0  0
 25 27  1  0  0  0  0
 25 24  1  0  0  0  0
 26 25  2  0  0  0  0
 27 35  1  6  0  0  0
 27 30  1  0  0  0  0
 28 27  1  0  0  0  0
 29 28  1  0  0  0  0
 30 31  1  0  0  0  0
 31 32  2  0  0  0  0
 33 31  1  0  0  0  0
 33 34  1  0  0  0  0
 36 35  1  0  0  0  0
 37 36  1  0  0  0  0
 38 37  1  0  0  0  0
 38 41  1  0  0  0  0
 38 39  1  0  0  0  0
 40 38  1  0  0  0  0
 42 41  1  0  0  0  0
M  END
>  <minimizedAffinity>
-7.46440506

$$$$

 OpenBabel12271914423D

 42 46  0  0  1  0  0  0  0  0999 V2000
  -18.7550  -27.8550  -11.2670 C   0  0  1  0  0  0  0  0  0  0  0  0
  -19.8850  -28.0460  -10.2650 C   0  0  1  0  0  0  0  0  0  0  0  0
  -19.7290  -27.3260   -8.9940 C   0  0  0  0  0  0  0  0  0  0  0  0
  -18.5740  -27.6850   -8.2990 C   0  0  0  0  0  0  0  0  0  0  0  0
  -18.2800  -27.0910   -7.0640 C   0  0  0  0  0  0  0  0  0  0  0  0
  -17.2070  -27.2940   -6.2200 O   0  0  0  0  0  0  0  0  0  0  0  0
  -17.4620  -26.5660   -5.0070 C   0  0  0  0  0  0  0  0  0  0  0  0
  -18.5930  -25.7340   -5.3030 O   0  0  0  0  0  0  0  0  0  0  0  0
  -19.0830  -26.1780   -6.5230 C   0  0  0  0  0  0  0  0  0  0  0  0
  -20.2370  -25.8040   -7.1960 C   0  0  0  0  0  0  0  0  0  0  0  0
  -20.5570  -26.3890   -8.4320 C   0  0  0  0  0  0  0  0  0  0  0  0
  -21.8150  -25.8390   -8.9800 C   0  0  0  0  0  0  0  0  0  0  0  0
  -21.5610  -25.4430  -10.3930 C   0  0  0  0  0  0  0  0  0  0  0  0
  -21.5950  -26.5160  -11.3730 N   0  0  2  0  0  0  0  0  0  0  0  0
  -21.1220  -26.1840  -12.2100 H   0  0  0  0  0  0  0  0  0  0  0  0
  -23.0080  -26.7450  -11.7360 C   0  0  0  0  0  0  0  0  0  0  0  0
  -23.4470  -28.0300  -11.0750 C   0  0  0  0  0  0  0  0  0  0  0  0
  -22.2230  -28.6690  -10.4810 C   0  0  0  0  0  0  0  0  0  0  0  0
  -21.1130  -27.8450  -11.0500 C   0  0  2  0  0  0  0  0  0  0  0  0
  -20.7300  -28.4660  -12.3450 C   0  0  0  0  0  0  0  0  0  0  0  0
  -19.4040  -28.4840  -12.4740 C   0  0  2  0  0  0  0  0  0  0  0  0
  -18.7020  -29.0040  -13.5140 O   0  0  0  0  0  0  0  0  0  0  0  0
  -17.4380  -29.6500  -13.2360 C   0  0  0  0  0  0  0  0  0  0  0  0
  -18.5530  -26.4560  -11.5750 O   0  0  0  0  0  0  0  0  0  0  0  0
  -17.3250  -26.1000  -12.0700 C   0  0  0  0  0  0  0  0  0  0  0  0
  -17.1290  -25.7810  -13.1910 O   0  0  0  0  0  0  0  0  0  0  0  0
  -16.1270  -26.1170  -11.1170 C   0  0  2  0  0  0  0  0  0  0  0  0
  -15.6910  -27.4460  -10.9970 O   0  0  0  0  0  0  0  0  0  0  0  0
  -16.3820  -28.0720  -11.2800 H   0  0  0  0  0  0  0  0  0  0  0  0
  -16.4740  -25.4800   -9.7950 C   0  0  0  0  0  0  0  0  0  0  0  0
  -15.3820  -25.5320   -8.7370 C   0  0  0  0  0  0  0  0  0  0  0  0
  -15.2120  -24.5740   -8.0510 O   0  0  0  0  0  0  0  0  0  0  0  0
  -14.6290  -26.6680   -8.5960 O   0  0  0  0  0  0  0  0  0  0  0  0
  -13.1820  -26.4670   -8.5760 C   0  0  0  0  0  0  0  0  0  0  0  0
  -15.0380  -25.3090  -11.8040 C   0  0  0  0  0  0  0  0  0  0  0  0
  -13.8420  -26.0820  -12.3000 C   0  0  0  0  0  0  0  0  0  0  0  0
  -13.2330  -25.5700  -13.5940 C   0  0  0  0  0  0  0  0  0  0  0  0
  -13.6340  -26.5040  -14.7170 C   0  0  0  0  0  0  0  0  0  0  0  0
  -14.1930  -27.8150  -14.2040 C   0  0  0  0  0  0  0  0  0  0  0  0
  -14.6660  -25.8550  -15.6050 C   0  0  0  0  0  0  0  0  0  0  0  0
  -12.4900  -26.7570  -15.5080 O   0  0  0  0  0  0  0  0  0  0  0  0
  -12.3790  -25.9840  -16.0770 H   0  0  0  0  0  0  0  0  0  0  0  0
  1 24  1  6  0  0  0
  1  2  1  0  0  0  0
  2 19  1  6  0  0  0
  2  3  1  0  0  0  0
  3 11  2  0  0  0  0
  3  4  1  0  0  0  0
  4  5  1  0  0  0  0
  5  9  2  0  0  0  0
  5  6  1  0  0  0  0
  6  7  1  0  0  0  0
  8  7  1  0  0  0  0
  9  8  1  0  0  0  0
 10  9  1  0  0  0  0
 11 10  1  0  0  0  0
 12 11  1  0  0  0  0
 13 12  1  0  0  0  0
 14 19  1  1  0  0  0
 14 13  1  0  0  0  0
 15 14  1  0  0  0  0
 16 14  1  0  0  0  0
 16 17  1  0  0  0  0
 17 18  1  0  0  0  0
 19 20  1  6  0  0  0
 19 18  1  0  0  0  0
 21 22  1  1  0  0  0
 21 20  1  0  0  0  0
 21  1  1  0  0  0  0
 22 23  1  0  0  0  0
 25 24  1  0  0  0  0
 25 27  1  0  0  0  0
 26 25  2  0  0  0  0
 27 35  1  6  0  0  0
 27 28  1  0  0  0  0
 27 30  1  0  0  0  0
 29 28  1  0  0  0  0
 30 31  1  0  0  0  0
 31 33  1  0  0  0  0
 31 32  2  0  0  0  0
 33 34  1  0  0  0  0
 36 35  1  0  0  0  0
 37 36  1  0  0  0  0
 38 39  1  0  0  0  0
 38 37  1  0  0  0  0
 40 38  1  0  0  0  0
 41 38  1  0  0  0  0
 42 41  1  0  0  0  0
M  END
>  <minimizedAffinity>
-7.18023729

$$$$

 OpenBabel12271914423D

 42 46  0  0  1  0  0  0  0  0999 V2000
  -16.3860  -26.2480  -11.7890 C   0  0  1  0  0  0  0  0  0  0  0  0
  -16.8930  -25.7600  -10.4400 C   0  0  1  0  0  0  0  0  0  0  0  0
  -18.2730  -26.1410  -10.1100 C   0  0  0  0  0  0  0  0  0  0  0  0
  -19.2080  -25.6700  -11.0320 C   0  0  0  0  0  0  0  0  0  0  0  0
  -20.5710  -25.9440  -10.8590 C   0  0  0  0  0  0  0  0  0  0  0  0
  -21.6510  -25.5820  -11.6400 O   0  0  0  0  0  0  0  0  0  0  0  0
  -22.8450  -25.9680  -10.9370 C   0  0  0  0  0  0  0  0  0  0  0  0
  -22.3910  -26.7970   -9.8570 O   0  0  0  0  0  0  0  0  0  0  0  0
  -21.0110  -26.6540   -9.8230 C   0  0  0  0  0  0  0  0  0  0  0  0
  -20.1010  -27.1340   -8.8920 C   0  0  0  0  0  0  0  0  0  0  0  0
  -18.7290  -26.8670   -9.0410 C   0  0  0  0  0  0  0  0  0  0  0  0
  -17.9400  -27.4800   -7.9520 C   0  0  0  0  0  0  0  0  0  0  0  0
  -16.8150  -28.2320   -8.5750 C   0  0  0  0  0  0  0  0  0  0  0  0
  -15.6620  -27.4410   -8.9750 N   0  0  2  0  0  0  0  0  0  0  0  0
  -15.1230  -27.9950   -9.6360 H   0  0  0  0  0  0  0  0  0  0  0  0
  -14.8150  -27.2480   -7.7800 C   0  0  0  0  0  0  0  0  0  0  0  0
  -14.9900  -25.8200   -7.3230 C   0  0  0  0  0  0  0  0  0  0  0  0
  -15.7910  -25.1070   -8.3750 C   0  0  0  0  0  0  0  0  0  0  0  0
  -15.8170  -26.0970   -9.4960 C   0  0  2  0  0  0  0  0  0  0  0  0
  -14.6140  -25.8420  -10.3300 C   0  0  0  0  0  0  0  0  0  0  0  0
  -14.9240  -25.9160  -11.6230 C   0  0  2  0  0  0  0  0  0  0  0  0
  -14.0820  -25.7080  -12.6690 O   0  0  0  0  0  0  0  0  0  0  0  0
  -12.7010  -25.3860  -12.3860 C   0  0  0  0  0  0  0  0  0  0  0  0
  -16.4830  -27.6870  -11.9010 O   0  0  0  0  0  0  0  0  0  0  0  0
  -17.2570  -28.1800  -12.9200 C   0  0  0  0  0  0  0  0  0  0  0  0
  -18.4170  -28.3900  -12.8310 O   0  0  0  0  0  0  0  0  0  0  0  0
  -16.5820  -28.4830  -14.2610 C   0  0  2  0  0  0  0  0  0  0  0  0
  -16.6970  -27.3400  -15.0680 O   0  0  0  0  0  0  0  0  0  0  0  0
  -17.3990  -26.7460  -14.7450 H   0  0  0  0  0  0  0  0  0  0  0  0
  -17.1620  -29.7220  -14.8950 C   0  0  0  0  0  0  0  0  0  0  0  0
  -17.8510  -29.5100  -16.2360 C   0  0  0  0  0  0  0  0  0  0  0  0
  -19.0090  -29.2330  -16.2400 O   0  0  0  0  0  0  0  0  0  0  0  0
  -17.1320  -29.6390  -17.3940 O   0  0  0  0  0  0  0  0  0  0  0  0
  -16.4400  -30.9140  -17.5690 C   0  0  0  0  0  0  0  0  0  0  0  0
  -15.1130  -28.7090  -13.9450 C   0  0  0  0  0  0  0  0  0  0  0  0
  -14.2580  -29.2370  -15.0690 C   0  0  0  0  0  0  0  0  0  0  0  0
  -12.8450  -28.6850  -15.1210 C   0  0  0  0  0  0  0  0  0  0  0  0
  -12.6900  -27.8770  -16.3930 C   0  0  0  0  0  0  0  0  0  0  0  0
  -13.6620  -28.3090  -17.4710 C   0  0  0  0  0  0  0  0  0  0  0  0
  -12.8960  -26.4080  -16.1190 C   0  0  0  0  0  0  0  0  0  0  0  0
  -11.3650  -28.0420  -16.8590 O   0  0  0  0  0  0  0  0  0  0  0  0
  -10.8150  -27.4570  -16.3210 H   0  0  0  0  0  0  0  0  0  0  0  0
  1 24  1  1  0  0  0
  1 21  1  0  0  0  0
  1  2  1  0  0  0  0
  2  3  1  0  0  0  0
  2 19  1  1  0  0  0
  3 11  2  0  0  0  0
  4  5  1  0  0  0  0
  4  3  1  0  0  0  0
  5  9  2  0  0  0  0
  6  7  1  0  0  0  0
  6  5  1  0  0  0  0
  7  8  1  0  0  0  0
  8  9  1  0  0  0  0
  9 10  1  0  0  0  0
 11 10  1  0  0  0  0
 11 12  1  0  0  0  0
 13 12  1  0  0  0  0
 14 19  1  6  0  0  0
 14 13  1  0  0  0  0
 14 16  1  0  0  0  0
 15 14  1  0  0  0  0
 16 17  1  0  0  0  0
 18 17  1  0  0  0  0
 19 20  1  6  0  0  0
 19 18  1  0  0  0  0
 21 22  1  6  0  0  0
 21 20  1  0  0  0  0
 22 23  1  0  0  0  0
 25 26  2  0  0  0  0
 25 24  1  0  0  0  0
 27 30  1  6  0  0  0
 27 35  1  0  0  0  0
 27 25  1  0  0  0  0
 28 29  1  0  0  0  0
 28 27  1  0  0  0  0
 31 30  1  0  0  0  0
 32 31  2  0  0  0  0
 33 31  1  0  0  0  0
 34 33  1  0  0  0  0
 36 35  1  0  0  0  0
 37 36  1  0  0  0  0
 38 40  1  0  0  0  0
 38 37  1  0  0  0  0
 39 38  1  0  0  0  0
 41 38  1  0  0  0  0
 41 42  1  0  0  0  0
M  END
>  <minimizedAffinity>
-6.85703802

$$$$
