
 OpenBabel12271914533D

 32 35  0  0  1  0  0  0  0  0999 V2000
  -14.3370  -25.6170  -11.1780 C   0  0  0  0  0  0  0  0  0  0  0  0
  -15.1660  -25.8050  -10.0670 C   0  0  0  0  0  0  0  0  0  0  0  0
  -14.6240  -25.9060   -8.7780 C   0  0  0  0  0  0  0  0  0  0  0  0
  -13.2370  -25.7880   -8.6920 C   0  0  0  0  0  0  0  0  0  0  0  0
  -12.4320  -25.5860   -9.7580 N   0  0  0  0  0  0  0  0  0  0  0  0
  -12.9710  -25.5020  -10.9850 C   0  0  0  0  0  0  0  0  0  0  0  0
  -15.4820  -26.1020   -7.6110 C   0  0  0  0  0  0  0  0  0  0  0  0
  -16.7240  -25.4870   -7.4590 C   0  0  0  0  0  0  0  0  0  0  0  0
  -17.5330  -25.6750   -6.3150 C   0  0  0  0  0  0  0  0  0  0  0  0
  -17.0750  -26.5230   -5.3130 C   0  0  0  0  0  0  0  0  0  0  0  0
  -17.5990  -26.9100   -4.1250 N   0  0  0  0  0  0  0  0  0  0  0  0
  -18.4830  -26.6470   -3.7020 H   0  0  0  0  0  0  0  0  0  0  0  0
  -16.7690  -27.7580   -3.4940 N   0  0  0  0  0  0  0  0  0  0  0  0
  -15.7130  -27.9270   -4.2860 C   0  0  0  0  0  0  0  0  0  0  0  0
  -14.5670  -28.8030   -3.9290 C   0  0  0  0  0  0  0  0  0  0  0  0
  -15.8510  -27.1620   -5.4360 C   0  0  0  0  0  0  0  0  0  0  0  0
  -15.0630  -26.9440   -6.5670 C   0  0  0  0  0  0  0  0  0  0  0  0
  -14.9950  -25.5710  -12.3760 O   0  0  0  0  0  0  0  0  0  0  0  0
  -15.0690  -26.7920  -13.1170 C   0  0  0  0  0  0  0  0  0  0  0  0
  -16.5210  -27.2940  -13.2060 C   0  0  1  0  0  0  0  0  0  0  0  0
  -16.7640  -27.9380  -14.5330 N   0  0  0  0  0  0  0  0  0  0  0  0
  -16.2600  -28.8390  -14.5950 H   0  0  0  0  0  0  0  0  0  0  0  0
  -17.7620  -28.1360  -14.6690 H   0  0  0  0  0  0  0  0  0  0  0  0
  -16.4680  -27.3260  -15.3140 H   0  0  0  0  0  0  0  0  0  0  0  0
  -16.9050  -28.3090  -12.1260 C   0  0  0  0  0  0  0  0  0  0  0  0
  -17.8610  -27.7340  -11.1280 C   0  0  0  0  0  0  0  0  0  0  0  0
  -18.5620  -26.5600  -11.4010 C   0  0  0  0  0  0  0  0  0  0  0  0
  -19.4820  -26.0730  -10.4800 C   0  0  0  0  0  0  0  0  0  0  0  0
  -19.7030  -26.7310   -9.2780 C   0  0  0  0  0  0  0  0  0  0  0  0
  -20.9400  -26.0330   -8.0090 Br  0  0  0  0  0  0  0  0  0  0  0  0
  -19.0040  -27.8930   -9.0020 C   0  0  0  0  0  0  0  0  0  0  0  0
  -18.0830  -28.4000   -9.9190 C   0  0  0  0  0  0  0  0  0  0  0  0
  1  6  2  0  0  0  0
  1  2  1  0  0  0  0
  2  3  2  0  0  0  0
  3  4  1  0  0  0  0
  3  7  1  0  0  0  0
  5  4  2  0  0  0  0
  6  5  1  0  0  0  0
  7  8  2  0  0  0  0
  7 17  1  0  0  0  0
  8  9  1  0  0  0  0
  9 10  2  0  0  0  0
 10 11  1  0  0  0  0
 11 12  1  0  0  0  0
 11 13  1  0  0  0  0
 14 15  1  0  0  0  0
 14 13  2  0  0  0  0
 16 10  1  0  0  0  0
 16 14  1  0  0  0  0
 17 16  2  0  0  0  0
 18  1  1  0  0  0  0
 19 18  1  0  0  0  0
 20 19  1  1  0  0  0
 20 25  1  0  0  0  0
 21 20  1  0  0  0  0
 22 21  1  0  0  0  0
 23 21  1  0  0  0  0
 24 21  1  0  0  0  0
 25 26  1  0  0  0  0
 26 32  1  0  0  0  0
 27 26  2  0  0  0  0
 27 28  1  0  0  0  0
 28 29  2  0  0  0  0
 29 31  1  0  0  0  0
 29 30  1  0  0  0  0
 32 31  2  0  0  0  0
M  END
>  <minimizedAffinity>
-8.83396435

$$$$

 OpenBabel12271914533D

 32 35  0  0  1  0  0  0  0  0999 V2000
  -16.3450  -28.0890  -12.8720 C   0  0  0  0  0  0  0  0  0  0  0  0
  -16.8020  -27.6240  -11.6340 C   0  0  0  0  0  0  0  0  0  0  0  0
  -18.0890  -27.9460  -11.1790 C   0  0  0  0  0  0  0  0  0  0  0  0
  -18.8460  -28.7580  -12.0230 C   0  0  0  0  0  0  0  0  0  0  0  0
  -18.4040  -29.2280  -13.2110 N   0  0  0  0  0  0  0  0  0  0  0  0
  -17.1720  -28.8980  -13.6320 C   0  0  0  0  0  0  0  0  0  0  0  0
  -18.5750  -27.4660   -9.8860 C   0  0  0  0  0  0  0  0  0  0  0  0
  -17.8830  -27.6490   -8.6900 C   0  0  0  0  0  0  0  0  0  0  0  0
  -18.3770  -27.1920   -7.4460 C   0  0  0  0  0  0  0  0  0  0  0  0
  -19.5920  -26.5190   -7.4240 C   0  0  0  0  0  0  0  0  0  0  0  0
  -20.3190  -25.9640   -6.4250 N   0  0  0  0  0  0  0  0  0  0  0  0
  -20.1110  -25.9230   -5.4320 H   0  0  0  0  0  0  0  0  0  0  0  0
  -21.4470  -25.4160   -6.9050 N   0  0  0  0  0  0  0  0  0  0  0  0
  -21.4410  -25.6080   -8.2220 C   0  0  0  0  0  0  0  0  0  0  0  0
  -22.5330  -25.1380   -9.1120 C   0  0  0  0  0  0  0  0  0  0  0  0
  -20.3020  -26.3070   -8.5970 C   0  0  0  0  0  0  0  0  0  0  0  0
  -19.8010  -26.7860   -9.8080 C   0  0  0  0  0  0  0  0  0  0  0  0
  -15.0870  -27.6710  -13.2060 O   0  0  0  0  0  0  0  0  0  0  0  0
  -14.8200  -26.2720  -13.0850 C   0  0  0  0  0  0  0  0  0  0  0  0
  -13.8140  -25.9990  -11.9540 C   0  0  1  0  0  0  0  0  0  0  0  0
  -12.5490  -25.4310  -12.5130 N   0  0  0  0  0  0  0  0  0  0  0  0
  -12.7040  -24.4660  -12.8500 H   0  0  0  0  0  0  0  0  0  0  0  0
  -11.8150  -25.3910  -11.7970 H   0  0  0  0  0  0  0  0  0  0  0  0
  -12.1820  -26.0100  -13.2890 H   0  0  0  0  0  0  0  0  0  0  0  0
  -14.3180  -25.0280  -10.8820 C   0  0  0  0  0  0  0  0  0  0  0  0
  -14.4760  -25.6940   -9.5500 C   0  0  0  0  0  0  0  0  0  0  0  0
  -14.0060  -26.9890   -9.3360 C   0  0  0  0  0  0  0  0  0  0  0  0
  -14.1180  -27.5660   -8.0770 C   0  0  0  0  0  0  0  0  0  0  0  0
  -14.7090  -26.8760   -7.0270 C   0  0  0  0  0  0  0  0  0  0  0  0
  -14.8890  -27.6940   -5.3160 Br  0  0  0  0  0  0  0  0  0  0  0  0
  -15.1810  -25.5930   -7.2380 C   0  0  0  0  0  0  0  0  0  0  0  0
  -15.0690  -24.9950   -8.4940 C   0  0  0  0  0  0  0  0  0  0  0  0
  1  2  2  0  0  0  0
  2  3  1  0  0  0  0
  3  7  1  0  0  0  0
  4  3  2  0  0  0  0
  5  4  1  0  0  0  0
  6  5  2  0  0  0  0
  6  1  1  0  0  0  0
  7 17  2  0  0  0  0
  7  8  1  0  0  0  0
  8  9  2  0  0  0  0
  9 10  1  0  0  0  0
 10 11  1  0  0  0  0
 11 12  1  0  0  0  0
 13 11  1  0  0  0  0
 14 13  2  0  0  0  0
 15 14  1  0  0  0  0
 16 14  1  0  0  0  0
 16 10  2  0  0  0  0
 17 16  1  0  0  0  0
 18 19  1  0  0  0  0
 18  1  1  0  0  0  0
 20 19  1  6  0  0  0
 20 25  1  0  0  0  0
 21 20  1  0  0  0  0
 21 23  1  0  0  0  0
 22 21  1  0  0  0  0
 24 21  1  0  0  0  0
 25 26  1  0  0  0  0
 26 27  2  0  0  0  0
 26 32  1  0  0  0  0
 27 28  1  0  0  0  0
 28 29  2  0  0  0  0
 29 30  1  0  0  0  0
 31 29  1  0  0  0  0
 32 31  2  0  0  0  0
M  END
>  <minimizedAffinity>
-8.58183956

$$$$

 OpenBabel12271914533D

 32 35  0  0  1  0  0  0  0  0999 V2000
  -14.4120  -25.5070  -10.8490 C   0  0  0  0  0  0  0  0  0  0  0  0
  -15.2420  -25.7250   -9.7450 C   0  0  0  0  0  0  0  0  0  0  0  0
  -14.6960  -25.9640   -8.4750 C   0  0  0  0  0  0  0  0  0  0  0  0
  -13.3040  -25.9490   -8.4000 C   0  0  0  0  0  0  0  0  0  0  0  0
  -12.4960  -25.7190   -9.4590 N   0  0  0  0  0  0  0  0  0  0  0  0
  -13.0390  -25.5020  -10.6670 C   0  0  0  0  0  0  0  0  0  0  0  0
  -15.5560  -26.1920   -7.3140 C   0  0  0  0  0  0  0  0  0  0  0  0
  -16.8180  -25.6180   -7.1690 C   0  0  0  0  0  0  0  0  0  0  0  0
  -17.6280  -25.8370   -6.0310 C   0  0  0  0  0  0  0  0  0  0  0  0
  -17.1490  -26.6730   -5.0290 C   0  0  0  0  0  0  0  0  0  0  0  0
  -17.6680  -27.0810   -3.8460 N   0  0  0  0  0  0  0  0  0  0  0  0
  -18.5630  -26.8490   -3.4280 H   0  0  0  0  0  0  0  0  0  0  0  0
  -16.8150  -27.9040   -3.2130 N   0  0  0  0  0  0  0  0  0  0  0  0
  -15.7490  -28.0350   -3.9970 C   0  0  0  0  0  0  0  0  0  0  0  0
  -14.5780  -28.8750   -3.6350 C   0  0  0  0  0  0  0  0  0  0  0  0
  -15.9040  -27.2720   -5.1460 C   0  0  0  0  0  0  0  0  0  0  0  0
  -15.1160  -27.0230   -6.2710 C   0  0  0  0  0  0  0  0  0  0  0  0
  -15.0750  -25.3210  -12.0300 O   0  0  0  0  0  0  0  0  0  0  0  0
  -15.1080  -26.4310  -12.9320 C   0  0  0  0  0  0  0  0  0  0  0  0
  -13.9160  -26.3850  -13.9050 C   0  0  1  0  0  0  0  0  0  0  0  0
  -13.3220  -27.7480  -14.0590 N   0  0  0  0  0  0  0  0  0  0  0  0
  -13.9620  -28.3630  -14.5890 H   0  0  0  0  0  0  0  0  0  0  0  0
  -12.4370  -27.7070  -14.5770 H   0  0  0  0  0  0  0  0  0  0  0  0
  -13.1160  -28.1790  -13.1410 H   0  0  0  0  0  0  0  0  0  0  0  0
  -14.2670  -25.8750  -15.3060 C   0  0  0  0  0  0  0  0  0  0  0  0
  -13.1740  -25.0340  -15.8880 C   0  0  0  0  0  0  0  0  0  0  0  0
  -13.1900  -24.6690  -17.2330 C   0  0  0  0  0  0  0  0  0  0  0  0
  -12.1910  -23.8450  -17.7380 C   0  0  0  0  0  0  0  0  0  0  0  0
  -11.1630  -23.3900  -16.9240 C   0  0  0  0  0  0  0  0  0  0  0  0
   -9.7800  -22.2910  -17.6390 Br  0  0  0  0  0  0  0  0  0  0  0  0
  -11.1420  -23.7550  -15.5900 C   0  0  0  0  0  0  0  0  0  0  0  0
  -12.1410  -24.5750  -15.0640 C   0  0  0  0  0  0  0  0  0  0  0  0
  1  6  2  0  0  0  0
  1  2  1  0  0  0  0
  2  3  2  0  0  0  0
  3  4  1  0  0  0  0
  3  7  1  0  0  0  0
  5  4  2  0  0  0  0
  6  5  1  0  0  0  0
  7  8  2  0  0  0  0
  7 17  1  0  0  0  0
  8  9  1  0  0  0  0
  9 10  2  0  0  0  0
 10 11  1  0  0  0  0
 11 12  1  0  0  0  0
 11 13  1  0  0  0  0
 14 15  1  0  0  0  0
 14 13  2  0  0  0  0
 16 10  1  0  0  0  0
 16 14  1  0  0  0  0
 17 16  2  0  0  0  0
 18  1  1  0  0  0  0
 19 18  1  0  0  0  0
 20 25  1  6  0  0  0
 20 19  1  0  0  0  0
 21 20  1  0  0  0  0
 21 24  1  0  0  0  0
 22 21  1  0  0  0  0
 23 21  1  0  0  0  0
 26 25  1  0  0  0  0
 26 32  2  0  0  0  0
 27 26  1  0  0  0  0
 28 27  2  0  0  0  0
 28 29  1  0  0  0  0
 29 31  2  0  0  0  0
 30 29  1  0  0  0  0
 31 32  1  0  0  0  0
M  END
>  <minimizedAffinity>
-8.52891064

$$$$

 OpenBabel12271914533D

 32 35  0  0  1  0  0  0  0  0999 V2000
  -16.4880  -27.1720  -12.7370 C   0  0  0  0  0  0  0  0  0  0  0  0
  -17.4650  -26.7870  -11.8120 C   0  0  0  0  0  0  0  0  0  0  0  0
  -18.4210  -27.7060  -11.3560 C   0  0  0  0  0  0  0  0  0  0  0  0
  -18.3110  -28.9990  -11.8660 C   0  0  0  0  0  0  0  0  0  0  0  0
  -17.3590  -29.3840  -12.7440 N   0  0  0  0  0  0  0  0  0  0  0  0
  -16.4590  -28.4850  -13.1760 C   0  0  0  0  0  0  0  0  0  0  0  0
  -19.4450  -27.3130  -10.3900 C   0  0  0  0  0  0  0  0  0  0  0  0
  -20.8130  -27.3950  -10.6450 C   0  0  0  0  0  0  0  0  0  0  0  0
  -21.7890  -26.9950   -9.7030 C   0  0  0  0  0  0  0  0  0  0  0  0
  -21.3620  -26.5190   -8.4690 C   0  0  0  0  0  0  0  0  0  0  0  0
  -22.0250  -26.0730   -7.3750 N   0  0  0  0  0  0  0  0  0  0  0  0
  -23.0260  -25.9930   -7.2250 H   0  0  0  0  0  0  0  0  0  0  0  0
  -21.1620  -25.7130   -6.4100 N   0  0  0  0  0  0  0  0  0  0  0  0
  -19.9390  -25.9410   -6.8810 C   0  0  0  0  0  0  0  0  0  0  0  0
  -18.7070  -25.6660   -6.0960 C   0  0  0  0  0  0  0  0  0  0  0  0
  -20.0090  -26.4360   -8.1750 C   0  0  0  0  0  0  0  0  0  0  0  0
  -19.0660  -26.8190   -9.1300 C   0  0  0  0  0  0  0  0  0  0  0  0
  -15.6430  -26.1680  -13.1210 O   0  0  0  0  0  0  0  0  0  0  0  0
  -14.2520  -26.4920  -13.1960 C   0  0  0  0  0  0  0  0  0  0  0  0
  -13.5020  -25.9880  -11.9510 C   0  0  1  0  0  0  0  0  0  0  0  0
  -12.3060  -25.1880  -12.3580 N   0  0  0  0  0  0  0  0  0  0  0  0
  -12.5970  -24.2850  -12.7680 H   0  0  0  0  0  0  0  0  0  0  0  0
  -11.7100  -24.9780  -11.5480 H   0  0  0  0  0  0  0  0  0  0  0  0
  -11.7190  -25.7000  -13.0400 H   0  0  0  0  0  0  0  0  0  0  0  0
  -14.3440  -25.1120  -11.0190 C   0  0  0  0  0  0  0  0  0  0  0  0
  -14.5230  -25.7370   -9.6700 C   0  0  0  0  0  0  0  0  0  0  0  0
  -13.9910  -26.9940   -9.3870 C   0  0  0  0  0  0  0  0  0  0  0  0
  -14.1270  -27.5310   -8.1120 C   0  0  0  0  0  0  0  0  0  0  0  0
  -14.8020  -26.8390   -7.1150 C   0  0  0  0  0  0  0  0  0  0  0  0
  -15.0130  -27.6030   -5.3830 Br  0  0  0  0  0  0  0  0  0  0  0  0
  -15.3360  -25.5940   -7.3960 C   0  0  0  0  0  0  0  0  0  0  0  0
  -15.2020  -25.0360   -8.6690 C   0  0  0  0  0  0  0  0  0  0  0  0
  1  2  2  0  0  0  0
  2  3  1  0  0  0  0
  3  7  1  0  0  0  0
  4  3  2  0  0  0  0
  5  4  1  0  0  0  0
  6  5  2  0  0  0  0
  6  1  1  0  0  0  0
  7 17  1  0  0  0  0
  8  7  2  0  0  0  0
  8  9  1  0  0  0  0
  9 10  2  0  0  0  0
 10 16  1  0  0  0  0
 10 11  1  0  0  0  0
 11 12  1  0  0  0  0
 11 13  1  0  0  0  0
 14 13  2  0  0  0  0
 14 15  1  0  0  0  0
 16 14  1  0  0  0  0
 17 16  2  0  0  0  0
 18  1  1  0  0  0  0
 19 18  1  0  0  0  0
 20 19  1  6  0  0  0
 20 25  1  0  0  0  0
 21 20  1  0  0  0  0
 21 23  1  0  0  0  0
 22 21  1  0  0  0  0
 24 21  1  0  0  0  0
 25 26  1  0  0  0  0
 26 27  2  0  0  0  0
 26 32  1  0  0  0  0
 27 28  1  0  0  0  0
 28 29  2  0  0  0  0
 29 30  1  0  0  0  0
 31 29  1  0  0  0  0
 32 31  2  0  0  0  0
M  END
>  <minimizedAffinity>
-8.29701519

$$$$

 OpenBabel12271914533D

 32 35  0  0  1  0  0  0  0  0999 V2000
  -22.1690  -25.5960   -7.4350 C   0  0  0  0  0  0  0  0  0  0  0  0
  -20.8190  -25.6210   -7.0670 C   0  0  0  0  0  0  0  0  0  0  0  0
  -19.8690  -26.2630   -7.8730 C   0  0  0  0  0  0  0  0  0  0  0  0
  -20.3570  -26.8400   -9.0450 C   0  0  0  0  0  0  0  0  0  0  0  0
  -21.6560  -26.8020   -9.4180 N   0  0  0  0  0  0  0  0  0  0  0  0
  -22.5510  -26.1910   -8.6260 C   0  0  0  0  0  0  0  0  0  0  0  0
  -18.4560  -26.2930   -7.4970 C   0  0  0  0  0  0  0  0  0  0  0  0
  -18.0080  -26.6350   -6.2220 C   0  0  0  0  0  0  0  0  0  0  0  0
  -16.6380  -26.6430   -5.8720 C   0  0  0  0  0  0  0  0  0  0  0  0
  -15.7050  -26.3140   -6.8480 C   0  0  0  0  0  0  0  0  0  0  0  0
  -14.3520  -26.2350   -6.8370 N   0  0  0  0  0  0  0  0  0  0  0  0
  -13.7090  -26.4110   -6.0720 H   0  0  0  0  0  0  0  0  0  0  0  0
  -13.8890  -25.8700   -8.0440 N   0  0  0  0  0  0  0  0  0  0  0  0
  -14.9460  -25.7260   -8.8380 C   0  0  0  0  0  0  0  0  0  0  0  0
  -14.8380  -25.3260  -10.2650 C   0  0  0  0  0  0  0  0  0  0  0  0
  -16.1130  -25.9820   -8.1310 C   0  0  0  0  0  0  0  0  0  0  0  0
  -17.4730  -25.9630   -8.4440 C   0  0  0  0  0  0  0  0  0  0  0  0
  -22.9900  -24.9670   -6.5410 O   0  0  0  0  0  0  0  0  0  0  0  0
  -24.2160  -25.6290   -6.2170 C   0  0  0  0  0  0  0  0  0  0  0  0
  -25.2360  -24.6400   -5.6270 C   0  0  1  0  0  0  0  0  0  0  0  0
  -26.2140  -24.2190   -6.6770 N   0  0  0  0  0  0  0  0  0  0  0  0
  -26.8440  -25.0020   -6.9190 H   0  0  0  0  0  0  0  0  0  0  0  0
  -26.8010  -23.4450   -6.3440 H   0  0  0  0  0  0  0  0  0  0  0  0
  -25.7350  -23.8890   -7.5330 H   0  0  0  0  0  0  0  0  0  0  0  0
  -26.0390  -25.1920   -4.4470 C   0  0  0  0  0  0  0  0  0  0  0  0
  -26.2690  -24.1580   -3.3890 C   0  0  0  0  0  0  0  0  0  0  0  0
  -27.2780  -24.3150   -2.4400 C   0  0  0  0  0  0  0  0  0  0  0  0
  -27.4390  -23.3660   -1.4370 C   0  0  0  0  0  0  0  0  0  0  0  0
  -26.6160  -22.2490   -1.3750 C   0  0  0  0  0  0  0  0  0  0  0  0
  -26.8720  -20.9380   -0.0170 Br  0  0  0  0  0  0  0  0  0  0  0  0
  -25.6180  -22.0880   -2.3190 C   0  0  0  0  0  0  0  0  0  0  0  0
  -25.4370  -23.0350   -3.3280 C   0  0  0  0  0  0  0  0  0  0  0  0
  1  2  1  0  0  0  0
  1 18  1  0  0  0  0
  3  7  1  0  0  0  0
  3  2  2  0  0  0  0
  4  3  1  0  0  0  0
  5  4  2  0  0  0  0
  5  6  1  0  0  0  0
  6  1  2  0  0  0  0
  7  8  2  0  0  0  0
  8  9  1  0  0  0  0
 10 11  1  0  0  0  0
 10  9  2  0  0  0  0
 11 12  1  0  0  0  0
 13 11  1  0  0  0  0
 14 16  1  0  0  0  0
 14 13  2  0  0  0  0
 15 14  1  0  0  0  0
 16 10  1  0  0  0  0
 17 16  2  0  0  0  0
 17  7  1  0  0  0  0
 18 19  1  0  0  0  0
 20 19  1  6  0  0  0
 20 25  1  0  0  0  0
 21 23  1  0  0  0  0
 21 20  1  0  0  0  0
 22 21  1  0  0  0  0
 24 21  1  0  0  0  0
 25 26  1  0  0  0  0
 26 32  2  0  0  0  0
 26 27  1  0  0  0  0
 27 28  2  0  0  0  0
 28 29  1  0  0  0  0
 29 30  1  0  0  0  0
 31 29  2  0  0  0  0
 32 31  1  0  0  0  0
M  END
>  <minimizedAffinity>
-8.13009167

$$$$

 OpenBabel12271914533D

 32 35  0  0  1  0  0  0  0  0999 V2000
  -14.2360  -25.7370  -11.2340 C   0  0  0  0  0  0  0  0  0  0  0  0
  -15.0960  -25.9090  -10.1430 C   0  0  0  0  0  0  0  0  0  0  0  0
  -14.5910  -25.9600   -8.8360 C   0  0  0  0  0  0  0  0  0  0  0  0
  -13.2100  -25.8120   -8.7110 C   0  0  0  0  0  0  0  0  0  0  0  0
  -12.3760  -25.6260   -9.7580 N   0  0  0  0  0  0  0  0  0  0  0  0
  -12.8790  -25.5900  -11.0030 C   0  0  0  0  0  0  0  0  0  0  0  0
  -15.4810  -26.1380   -7.6890 C   0  0  0  0  0  0  0  0  0  0  0  0
  -16.7400  -25.5460   -7.5950 C   0  0  0  0  0  0  0  0  0  0  0  0
  -17.5800  -25.7170   -6.4710 C   0  0  0  0  0  0  0  0  0  0  0  0
  -17.1350  -26.5220   -5.4290 C   0  0  0  0  0  0  0  0  0  0  0  0
  -17.6870  -26.8830   -4.2460 N   0  0  0  0  0  0  0  0  0  0  0  0
  -18.5900  -26.6260   -3.8580 H   0  0  0  0  0  0  0  0  0  0  0  0
  -16.8600  -27.6910   -3.5630 N   0  0  0  0  0  0  0  0  0  0  0  0
  -15.7760  -27.8610   -4.3150 C   0  0  0  0  0  0  0  0  0  0  0  0
  -14.6240  -28.7000   -3.8950 C   0  0  0  0  0  0  0  0  0  0  0  0
  -15.8940  -27.1370   -5.4930 C   0  0  0  0  0  0  0  0  0  0  0  0
  -15.0760  -26.9370   -6.6070 C   0  0  0  0  0  0  0  0  0  0  0  0
  -14.8570  -25.7400  -12.4520 O   0  0  0  0  0  0  0  0  0  0  0  0
  -14.0190  -25.5930  -13.6010 C   0  0  0  0  0  0  0  0  0  0  0  0
  -14.3110  -26.6920  -14.6380 C   0  0  1  0  0  0  0  0  0  0  0  0
  -13.3640  -26.5800  -15.7900 N   0  0  0  0  0  0  0  0  0  0  0  0
  -12.4100  -26.8550  -15.5020 H   0  0  0  0  0  0  0  0  0  0  0  0
  -13.6430  -27.2010  -16.5580 H   0  0  0  0  0  0  0  0  0  0  0  0
  -13.3420  -25.6180  -16.1720 H   0  0  0  0  0  0  0  0  0  0  0  0
  -14.2020  -28.1190  -14.0920 C   0  0  0  0  0  0  0  0  0  0  0  0
  -15.4520  -28.9090  -14.3290 C   0  0  0  0  0  0  0  0  0  0  0  0
  -16.5030  -28.8750  -13.4140 C   0  0  0  0  0  0  0  0  0  0  0  0
  -17.6740  -29.5770  -13.6810 C   0  0  0  0  0  0  0  0  0  0  0  0
  -17.8060  -30.3280  -14.8410 C   0  0  0  0  0  0  0  0  0  0  0  0
  -19.4010  -31.3130  -15.1750 Br  0  0  0  0  0  0  0  0  0  0  0  0
  -16.7610  -30.3660  -15.7470 C   0  0  0  0  0  0  0  0  0  0  0  0
  -15.5820  -29.6620  -15.5000 C   0  0  0  0  0  0  0  0  0  0  0  0
  1  6  2  0  0  0  0
  1  2  1  0  0  0  0
  2  3  2  0  0  0  0
  3  4  1  0  0  0  0
  3  7  1  0  0  0  0
  5  4  2  0  0  0  0
  6  5  1  0  0  0  0
  7  8  2  0  0  0  0
  7 17  1  0  0  0  0
  8  9  1  0  0  0  0
  9 10  2  0  0  0  0
 10 11  1  0  0  0  0
 11 12  1  0  0  0  0
 11 13  1  0  0  0  0
 14 15  1  0  0  0  0
 14 13  2  0  0  0  0
 16 10  1  0  0  0  0
 16 14  1  0  0  0  0
 17 16  2  0  0  0  0
 18  1  1  0  0  0  0
 19 18  1  0  0  0  0
 20 25  1  1  0  0  0
 20 19  1  0  0  0  0
 21 22  1  0  0  0  0
 21 20  1  0  0  0  0
 23 21  1  0  0  0  0
 24 21  1  0  0  0  0
 26 25  1  0  0  0  0
 26 27  2  0  0  0  0
 28 27  1  0  0  0  0
 29 28  2  0  0  0  0
 30 29  1  0  0  0  0
 31 32  2  0  0  0  0
 31 29  1  0  0  0  0
 32 26  1  0  0  0  0
M  END
>  <minimizedAffinity>
-7.99404526

$$$$

 OpenBabel12271914533D

 32 35  0  0  1  0  0  0  0  0999 V2000
  -19.3130  -25.5590   -6.4230 C   0  0  0  0  0  0  0  0  0  0  0  0
  -18.1870  -25.4850   -7.2490 C   0  0  0  0  0  0  0  0  0  0  0  0
  -16.9550  -26.0080   -6.8280 C   0  0  0  0  0  0  0  0  0  0  0  0
  -16.9490  -26.6070   -5.5690 C   0  0  0  0  0  0  0  0  0  0  0  0
  -18.0380  -26.7000   -4.7740 N   0  0  0  0  0  0  0  0  0  0  0  0
  -19.2050  -26.1830   -5.1920 C   0  0  0  0  0  0  0  0  0  0  0  0
  -15.7720  -25.9360   -7.6840 C   0  0  0  0  0  0  0  0  0  0  0  0
  -14.4690  -26.0650   -7.2050 C   0  0  0  0  0  0  0  0  0  0  0  0
  -13.3360  -25.9770   -8.0460 C   0  0  0  0  0  0  0  0  0  0  0  0
  -13.5360  -25.7710   -9.4060 C   0  0  0  0  0  0  0  0  0  0  0  0
  -12.6850  -25.6480  -10.4530 N   0  0  0  0  0  0  0  0  0  0  0  0
  -11.6710  -25.6860  -10.4580 H   0  0  0  0  0  0  0  0  0  0  0  0
  -13.3630  -25.4570  -11.5960 N   0  0  0  0  0  0  0  0  0  0  0  0
  -14.6570  -25.4690  -11.2860 C   0  0  0  0  0  0  0  0  0  0  0  0
  -15.7320  -25.2880  -12.2960 C   0  0  0  0  0  0  0  0  0  0  0  0
  -14.8190  -25.6510   -9.9200 C   0  0  0  0  0  0  0  0  0  0  0  0
  -15.9190  -25.7230   -9.0650 C   0  0  0  0  0  0  0  0  0  0  0  0
  -20.4370  -24.9790   -6.9430 O   0  0  0  0  0  0  0  0  0  0  0  0
  -21.6170  -25.7870   -6.9860 C   0  0  0  0  0  0  0  0  0  0  0  0
  -21.7330  -26.5210   -8.3330 C   0  0  1  0  0  0  0  0  0  0  0  0
  -23.1530  -26.9080   -8.5890 N   0  0  0  0  0  0  0  0  0  0  0  0
  -23.7250  -26.0720   -8.7930 H   0  0  0  0  0  0  0  0  0  0  0  0
  -23.2240  -27.5320   -9.4020 H   0  0  0  0  0  0  0  0  0  0  0  0
  -23.5620  -27.4140   -7.7840 H   0  0  0  0  0  0  0  0  0  0  0  0
  -21.2540  -25.7060   -9.5380 C   0  0  0  0  0  0  0  0  0  0  0  0
  -20.2290  -26.4410  -10.3440 C   0  0  0  0  0  0  0  0  0  0  0  0
  -19.5520  -27.5370   -9.8110 C   0  0  0  0  0  0  0  0  0  0  0  0
  -18.6410  -28.2350  -10.5960 C   0  0  0  0  0  0  0  0  0  0  0  0
  -18.3820  -27.8460  -11.9030 C   0  0  0  0  0  0  0  0  0  0  0  0
  -17.1040  -28.7890  -12.9550 Br  0  0  0  0  0  0  0  0  0  0  0  0
  -19.0490  -26.7550  -12.4320 C   0  0  0  0  0  0  0  0  0  0  0  0
  -19.9720  -26.0480  -11.6610 C   0  0  0  0  0  0  0  0  0  0  0  0
  1  6  2  0  0  0  0
  2  3  2  0  0  0  0
  2  1  1  0  0  0  0
  3  4  1  0  0  0  0
  4  5  2  0  0  0  0
  6  5  1  0  0  0  0
  7  8  1  0  0  0  0
  7  3  1  0  0  0  0
  9  8  2  0  0  0  0
 10  9  1  0  0  0  0
 11 10  1  0  0  0  0
 12 11  1  0  0  0  0
 13 14  2  0  0  0  0
 13 11  1  0  0  0  0
 14 16  1  0  0  0  0
 15 14  1  0  0  0  0
 16 10  2  0  0  0  0
 16 17  1  0  0  0  0
 17  7  2  0  0  0  0
 18  1  1  0  0  0  0
 19 18  1  0  0  0  0
 20 25  1  6  0  0  0
 20 19  1  0  0  0  0
 21 20  1  0  0  0  0
 21 24  1  0  0  0  0
 22 21  1  0  0  0  0
 23 21  1  0  0  0  0
 26 27  1  0  0  0  0
 26 25  1  0  0  0  0
 28 27  2  0  0  0  0
 29 28  1  0  0  0  0
 30 29  1  0  0  0  0
 31 29  2  0  0  0  0
 31 32  1  0  0  0  0
 32 26  2  0  0  0  0
M  END
>  <minimizedAffinity>
-7.89089537

$$$$

 OpenBabel12271914533D

 32 35  0  0  1  0  0  0  0  0999 V2000
  -15.9700  -25.4380  -11.3880 C   0  0  0  0  0  0  0  0  0  0  0  0
  -16.2190  -25.7890  -10.0570 C   0  0  0  0  0  0  0  0  0  0  0  0
  -15.1760  -26.2190   -9.2230 C   0  0  0  0  0  0  0  0  0  0  0  0
  -13.9080  -26.2480   -9.8020 C   0  0  0  0  0  0  0  0  0  0  0  0
  -13.6560  -25.8910  -11.0810 N   0  0  0  0  0  0  0  0  0  0  0  0
  -14.6710  -25.4920  -11.8650 C   0  0  0  0  0  0  0  0  0  0  0  0
  -15.4260  -26.5880   -7.8300 C   0  0  0  0  0  0  0  0  0  0  0  0
  -14.4630  -27.1670   -7.0050 C   0  0  0  0  0  0  0  0  0  0  0  0
  -14.7290  -27.5320   -5.6650 C   0  0  0  0  0  0  0  0  0  0  0  0
  -15.9960  -27.2840   -5.1500 C   0  0  0  0  0  0  0  0  0  0  0  0
  -16.5540  -27.5040   -3.9350 N   0  0  0  0  0  0  0  0  0  0  0  0
  -16.1370  -27.9150   -3.1070 H   0  0  0  0  0  0  0  0  0  0  0  0
  -17.8310  -27.0870   -3.9180 N   0  0  0  0  0  0  0  0  0  0  0  0
  -18.0920  -26.5860   -5.1220 C   0  0  0  0  0  0  0  0  0  0  0  0
  -19.4150  -26.0210   -5.4930 C   0  0  0  0  0  0  0  0  0  0  0  0
  -16.9740  -26.6970   -5.9380 C   0  0  0  0  0  0  0  0  0  0  0  0
  -16.6920  -26.3650   -7.2640 C   0  0  0  0  0  0  0  0  0  0  0  0
  -17.0800  -25.0710  -12.0950 O   0  0  0  0  0  0  0  0  0  0  0  0
  -17.3020  -25.7420  -13.3390 C   0  0  0  0  0  0  0  0  0  0  0  0
  -18.7810  -26.1370  -13.4950 C   0  0  1  0  0  0  0  0  0  0  0  0
  -19.0570  -26.5590  -14.9020 N   0  0  0  0  0  0  0  0  0  0  0  0
  -18.6070  -27.4690  -15.1020 H   0  0  0  0  0  0  0  0  0  0  0  0
  -20.0640  -26.6740  -15.0620 H   0  0  0  0  0  0  0  0  0  0  0  0
  -18.7220  -25.8550  -15.5830 H   0  0  0  0  0  0  0  0  0  0  0  0
  -19.2280  -27.2790  -12.5780 C   0  0  0  0  0  0  0  0  0  0  0  0
  -19.9840  -26.7790  -11.3860 C   0  0  0  0  0  0  0  0  0  0  0  0
  -19.6890  -27.2430  -10.1050 C   0  0  0  0  0  0  0  0  0  0  0  0
  -20.3710  -26.7260   -9.0080 C   0  0  0  0  0  0  0  0  0  0  0  0
  -21.3570  -25.7630   -9.1710 C   0  0  0  0  0  0  0  0  0  0  0  0
  -22.3070  -25.0910   -7.6640 Br  0  0  0  0  0  0  0  0  0  0  0  0
  -21.6550  -25.3060  -10.4420 C   0  0  0  0  0  0  0  0  0  0  0  0
  -20.9760  -25.8070  -11.5530 C   0  0  0  0  0  0  0  0  0  0  0  0
  1  2  1  0  0  0  0
  2  3  2  0  0  0  0
  3  7  1  0  0  0  0
  4  3  1  0  0  0  0
  5  4  2  0  0  0  0
  6  1  2  0  0  0  0
  6  5  1  0  0  0  0
  7 17  2  0  0  0  0
  7  8  1  0  0  0  0
  8  9  2  0  0  0  0
  9 10  1  0  0  0  0
 10 11  1  0  0  0  0
 11 13  1  0  0  0  0
 11 12  1  0  0  0  0
 14 13  2  0  0  0  0
 15 14  1  0  0  0  0
 16 10  2  0  0  0  0
 16 14  1  0  0  0  0
 17 16  1  0  0  0  0
 18  1  1  0  0  0  0
 19 18  1  0  0  0  0
 20 19  1  6  0  0  0
 20 25  1  0  0  0  0
 21 20  1  0  0  0  0
 22 21  1  0  0  0  0
 23 21  1  0  0  0  0
 24 21  1  0  0  0  0
 25 26  1  0  0  0  0
 26 27  1  0  0  0  0
 27 28  2  0  0  0  0
 29 28  1  0  0  0  0
 29 30  1  0  0  0  0
 31 29  2  0  0  0  0
 32 26  2  0  0  0  0
 32 31  1  0  0  0  0
M  END
>  <minimizedAffinity>
-7.85947561

$$$$

 OpenBabel12271914533D

 32 35  0  0  1  0  0  0  0  0999 V2000
  -24.6000  -26.3310   -5.4230 C   0  0  0  0  0  0  0  0  0  0  0  0
  -25.4570  -25.6180   -4.5780 C   0  0  0  0  0  0  0  0  0  0  0  0
  -26.4280  -26.2830   -3.8160 C   0  0  0  0  0  0  0  0  0  0  0  0
  -26.4570  -27.6710   -3.9480 C   0  0  0  0  0  0  0  0  0  0  0  0
  -25.6200  -28.3690   -4.7460 N   0  0  0  0  0  0  0  0  0  0  0  0
  -24.7040  -27.7110   -5.4760 C   0  0  0  0  0  0  0  0  0  0  0  0
  -27.3270  -25.5460   -2.9290 C   0  0  0  0  0  0  0  0  0  0  0  0
  -28.5210  -26.0720   -2.4370 C   0  0  0  0  0  0  0  0  0  0  0  0
  -29.3860  -25.3380   -1.5930 C   0  0  0  0  0  0  0  0  0  0  0  0
  -29.0180  -24.0480   -1.2290 C   0  0  0  0  0  0  0  0  0  0  0  0
  -29.6070  -23.1090   -0.4510 N   0  0  0  0  0  0  0  0  0  0  0  0
  -30.4850  -23.1590    0.0560 H   0  0  0  0  0  0  0  0  0  0  0  0
  -28.8550  -21.9970   -0.3980 N   0  0  0  0  0  0  0  0  0  0  0  0
  -27.7720  -22.2260   -1.1350 C   0  0  0  0  0  0  0  0  0  0  0  0
  -26.6930  -21.2220   -1.3210 C   0  0  0  0  0  0  0  0  0  0  0  0
  -27.8320  -23.4970   -1.6890 C   0  0  0  0  0  0  0  0  0  0  0  0
  -27.0050  -24.2360   -2.5370 C   0  0  0  0  0  0  0  0  0  0  0  0
  -23.7260  -25.5560   -6.1330 O   0  0  0  0  0  0  0  0  0  0  0  0
  -23.0620  -26.1780   -7.2360 C   0  0  0  0  0  0  0  0  0  0  0  0
  -21.7140  -25.4960   -7.5230 C   0  0  1  0  0  0  0  0  0  0  0  0
  -21.8840  -24.0110   -7.5600 N   0  0  0  0  0  0  0  0  0  0  0  0
  -22.0700  -23.6440   -6.6110 H   0  0  0  0  0  0  0  0  0  0  0  0
  -21.0320  -23.5510   -7.9040 H   0  0  0  0  0  0  0  0  0  0  0  0
  -22.6540  -23.7320   -8.1920 H   0  0  0  0  0  0  0  0  0  0  0  0
  -20.6190  -25.8070   -6.4980 C   0  0  0  0  0  0  0  0  0  0  0  0
  -19.2500  -25.7410   -7.1000 C   0  0  0  0  0  0  0  0  0  0  0  0
  -18.9720  -26.3620   -8.3170 C   0  0  0  0  0  0  0  0  0  0  0  0
  -17.7070  -26.2440   -8.8800 C   0  0  0  0  0  0  0  0  0  0  0  0
  -16.7050  -25.5280   -8.2390 C   0  0  0  0  0  0  0  0  0  0  0  0
  -14.9650  -25.4050   -9.0060 Br  0  0  0  0  0  0  0  0  0  0  0  0
  -16.9770  -24.9150   -7.0290 C   0  0  0  0  0  0  0  0  0  0  0  0
  -18.2440  -25.0170   -6.4530 C   0  0  0  0  0  0  0  0  0  0  0  0
  1  2  1  0  0  0  0
  2  3  2  0  0  0  0
  3  7  1  0  0  0  0
  4  3  1  0  0  0  0
  5  4  2  0  0  0  0
  6  1  2  0  0  0  0
  6  5  1  0  0  0  0
  7 17  2  0  0  0  0
  7  8  1  0  0  0  0
  8  9  2  0  0  0  0
  9 10  1  0  0  0  0
 10 11  1  0  0  0  0
 11 13  1  0  0  0  0
 11 12  1  0  0  0  0
 14 13  2  0  0  0  0
 15 14  1  0  0  0  0
 16 10  2  0  0  0  0
 16 14  1  0  0  0  0
 17 16  1  0  0  0  0
 18  1  1  0  0  0  0
 19 18  1  0  0  0  0
 20 19  1  1  0  0  0
 20 25  1  0  0  0  0
 21 20  1  0  0  0  0
 21 22  1  0  0  0  0
 23 21  1  0  0  0  0
 24 21  1  0  0  0  0
 26 25  1  0  0  0  0
 26 32  2  0  0  0  0
 27 26  1  0  0  0  0
 28 27  2  0  0  0  0
 28 29  1  0  0  0  0
 29 31  2  0  0  0  0
 30 29  1  0  0  0  0
 31 32  1  0  0  0  0
M  END
>  <minimizedAffinity>
-7.79896641

$$$$
