
 OpenBabel12271914493D

 22 23  0  0  1  0  0  0  0  0999 V2000
  -13.3360  -26.0400   -9.7540 C   0  0  2  0  0  0  0  0  0  0  0  0
  -14.7020  -25.3750  -10.0670 C   0  0  2  0  0  0  0  0  0  0  0  0
  -15.5660  -25.8130   -8.9820 O   0  0  0  0  0  0  0  0  0  0  0  0
  -14.7670  -25.7100   -7.8000 C   0  0  2  0  0  0  0  0  0  0  0  0
  -13.3860  -26.2330   -8.2400 C   0  0  0  0  0  0  0  0  0  0  0  0
  -15.3950  -26.3460   -6.5980 C   0  0  0  0  0  0  0  0  0  0  0  0
  -14.6960  -27.2340   -5.7750 C   0  0  0  0  0  0  0  0  0  0  0  0
  -15.3020  -27.7880   -4.6310 C   0  0  0  0  0  0  0  0  0  0  0  0
  -14.5660  -28.7540   -3.8010 C   0  0  0  0  0  0  0  0  0  0  0  0
  -16.5990  -27.3720   -4.3870 C   0  0  0  0  0  0  0  0  0  0  0  0
  -17.3270  -26.5690   -5.1220 N   0  0  0  0  0  0  0  0  0  0  0  0
  -16.7070  -26.0200   -6.2140 C   0  0  0  0  0  0  0  0  0  0  0  0
  -17.2150  -27.8940   -3.3170 O   0  0  0  0  0  0  0  0  0  0  0  0
  -18.2060  -27.9730   -3.7840 H   0  0  0  0  0  0  0  0  0  0  0  0
  -12.1340  -25.3520  -10.0970 O   0  0  0  0  0  0  0  0  0  0  0  0
  -12.2420  -25.2260  -11.1050 H   0  0  0  0  0  0  0  0  0  0  0  0
  -15.3250  -25.6700  -11.4170 C   0  0  0  0  0  0  0  0  0  0  0  0
  -14.5420  -26.6980  -11.9930 O   0  0  0  0  0  0  0  0  0  0  0  0
  -13.9800  -26.3670  -13.4860 P   0  0  0  0  0  0  0  0  0  0  0  0
  -12.7930  -25.4020  -13.2000 O   0  0  0  0  0  0  0  0  0  0  0  0
  -13.5780  -27.7680  -13.9200 O   0  0  0  0  0  0  0  0  0  0  0  0
  -15.1480  -25.7350  -14.2070 O   0  0  0  0  0  0  0  0  0  0  0  0
  1 15  1  1  0  0  0
  1  5  1  0  0  0  0
  2 17  1  6  0  0  0
  2  1  1  0  0  0  0
  2  3  1  0  0  0  0
  3  4  1  0  0  0  0
  4  6  1  1  0  0  0
  5  4  1  0  0  0  0
  6 12  2  0  0  0  0
  6  7  1  0  0  0  0
  7  8  2  0  0  0  0
  8 10  1  0  0  0  0
  8  9  1  0  0  0  0
 10 13  1  0  0  0  0
 11 10  2  0  0  0  0
 12 11  1  0  0  0  0
 14 13  1  0  0  0  0
 16 15  1  0  0  0  0
 18 17  1  0  0  0  0
 19 20  1  0  0  0  0
 19 18  1  0  0  0  0
 21 19  1  0  0  0  0
 22 19  2  0  0  0  0
M  END
>  <minimizedAffinity>
-8.00650501

$$$$

 OpenBabel12271914493D

 22 23  0  0  1  0  0  0  0  0999 V2000
  -13.1720  -26.1610   -9.6370 C   0  0  2  0  0  0  0  0  0  0  0  0
  -14.6000  -25.7780  -10.1080 C   0  0  2  0  0  0  0  0  0  0  0  0
  -15.4610  -26.2370   -9.0290 O   0  0  0  0  0  0  0  0  0  0  0  0
  -14.7840  -25.8690   -7.8230 C   0  0  2  0  0  0  0  0  0  0  0  0
  -13.3060  -26.1920   -8.1170 C   0  0  0  0  0  0  0  0  0  0  0  0
  -15.3910  -26.4680   -6.5920 C   0  0  0  0  0  0  0  0  0  0  0  0
  -14.6800  -27.3390   -5.7600 C   0  0  0  0  0  0  0  0  0  0  0  0
  -15.2650  -27.8560   -4.5890 C   0  0  0  0  0  0  0  0  0  0  0  0
  -14.5180  -28.8060   -3.7490 C   0  0  0  0  0  0  0  0  0  0  0  0
  -16.5540  -27.4250   -4.3290 C   0  0  0  0  0  0  0  0  0  0  0  0
  -17.2920  -26.6360   -5.0700 N   0  0  0  0  0  0  0  0  0  0  0  0
  -16.6920  -26.1220   -6.1890 C   0  0  0  0  0  0  0  0  0  0  0  0
  -17.1500  -27.9130   -3.2320 O   0  0  0  0  0  0  0  0  0  0  0  0
  -18.1520  -27.9970   -3.6760 H   0  0  0  0  0  0  0  0  0  0  0  0
  -12.0750  -25.3180   -9.9920 O   0  0  0  0  0  0  0  0  0  0  0  0
  -12.1250  -25.3250  -11.0120 H   0  0  0  0  0  0  0  0  0  0  0  0
  -15.0600  -26.3220  -11.4450 C   0  0  0  0  0  0  0  0  0  0  0  0
  -15.8360  -25.2980  -12.0380 O   0  0  0  0  0  0  0  0  0  0  0  0
  -17.2530  -25.8000  -12.6670 P   0  0  0  0  0  0  0  0  0  0  0  0
  -16.8680  -26.1740  -14.1280 O   0  0  0  0  0  0  0  0  0  0  0  0
  -17.5280  -26.9830  -11.7520 O   0  0  0  0  0  0  0  0  0  0  0  0
  -18.1750  -24.6090  -12.5410 O   0  0  0  0  0  0  0  0  0  0  0  0
  1 15  1  1  0  0  0
  1  5  1  0  0  0  0
  2 17  1  6  0  0  0
  2  1  1  0  0  0  0
  2  3  1  0  0  0  0
  3  4  1  0  0  0  0
  4  6  1  1  0  0  0
  5  4  1  0  0  0  0
  6 12  2  0  0  0  0
  6  7  1  0  0  0  0
  7  8  2  0  0  0  0
  8 10  1  0  0  0  0
  8  9  1  0  0  0  0
 10 13  1  0  0  0  0
 11 10  2  0  0  0  0
 12 11  1  0  0  0  0
 14 13  1  0  0  0  0
 16 15  1  0  0  0  0
 18 17  1  0  0  0  0
 19 22  1  0  0  0  0
 19 18  1  0  0  0  0
 19 21  1  0  0  0  0
 20 19  2  0  0  0  0
M  END
>  <minimizedAffinity>
-7.73839045

$$$$

 OpenBabel12271914493D

 22 23  0  0  1  0  0  0  0  0999 V2000
  -13.1500  -26.0140   -9.8960 C   0  0  2  0  0  0  0  0  0  0  0  0
  -14.5280  -25.4550  -10.3410 C   0  0  2  0  0  0  0  0  0  0  0  0
  -15.4310  -25.8490   -9.2720 O   0  0  0  0  0  0  0  0  0  0  0  0
  -14.7110  -25.6030   -8.0600 C   0  0  2  0  0  0  0  0  0  0  0  0
  -13.2810  -26.0820   -8.3760 C   0  0  0  0  0  0  0  0  0  0  0  0
  -15.3770  -26.1720   -6.8440 C   0  0  0  0  0  0  0  0  0  0  0  0
  -16.6990  -25.8650   -6.5090 C   0  0  0  0  0  0  0  0  0  0  0  0
  -17.3110  -26.4450   -5.3810 C   0  0  0  0  0  0  0  0  0  0  0  0
  -18.6880  -26.0770   -5.0180 C   0  0  0  0  0  0  0  0  0  0  0  0
  -16.5220  -27.3310   -4.6690 C   0  0  0  0  0  0  0  0  0  0  0  0
  -15.2730  -27.6480   -4.9030 N   0  0  0  0  0  0  0  0  0  0  0  0
  -14.7080  -27.0940   -6.0220 C   0  0  0  0  0  0  0  0  0  0  0  0
  -17.0650  -27.8870   -3.5760 O   0  0  0  0  0  0  0  0  0  0  0  0
  -16.1460  -27.8720   -2.9740 H   0  0  0  0  0  0  0  0  0  0  0  0
  -11.9670  -25.2900  -10.2300 O   0  0  0  0  0  0  0  0  0  0  0  0
  -12.0210  -25.2550  -11.2500 H   0  0  0  0  0  0  0  0  0  0  0  0
  -15.0520  -25.8950  -11.6930 C   0  0  0  0  0  0  0  0  0  0  0  0
  -13.9130  -26.1000  -12.5070 O   0  0  0  0  0  0  0  0  0  0  0  0
  -14.2430  -26.3480  -14.0830 P   0  0  0  0  0  0  0  0  0  0  0  0
  -15.7450  -25.9520  -14.1870 O   0  0  0  0  0  0  0  0  0  0  0  0
  -13.2730  -25.3530  -14.7010 O   0  0  0  0  0  0  0  0  0  0  0  0
  -13.9590  -27.8140  -14.3120 O   0  0  0  0  0  0  0  0  0  0  0  0
  1 15  1  1  0  0  0
  1  5  1  0  0  0  0
  2 17  1  6  0  0  0
  2  1  1  0  0  0  0
  2  3  1  0  0  0  0
  3  4  1  0  0  0  0
  4  6  1  1  0  0  0
  5  4  1  0  0  0  0
  6  7  1  0  0  0  0
  6 12  2  0  0  0  0
  7  8  2  0  0  0  0
  8  9  1  0  0  0  0
  8 10  1  0  0  0  0
 10 13  1  0  0  0  0
 11 10  2  0  0  0  0
 12 11  1  0  0  0  0
 13 14  1  0  0  0  0
 16 15  1  0  0  0  0
 18 17  1  0  0  0  0
 19 18  1  0  0  0  0
 20 19  1  0  0  0  0
 21 19  2  0  0  0  0
 22 19  1  0  0  0  0
M  END
>  <minimizedAffinity>
-7.57004786

$$$$

 OpenBabel12271914493D

 22 23  0  0  1  0  0  0  0  0999 V2000
  -19.1830  -25.8810   -5.7060 C   0  0  2  0  0  0  0  0  0  0  0  0
  -19.6600  -26.4110   -7.0850 C   0  0  2  0  0  0  0  0  0  0  0  0
  -18.4890  -26.2790   -7.9370 O   0  0  0  0  0  0  0  0  0  0  0  0
  -17.3880  -26.7210   -7.1370 C   0  0  2  0  0  0  0  0  0  0  0  0
  -17.6750  -26.1180   -5.7490 C   0  0  0  0  0  0  0  0  0  0  0  0
  -16.0520  -26.4360   -7.7510 C   0  0  0  0  0  0  0  0  0  0  0  0
  -15.9170  -26.0150   -9.0780 C   0  0  0  0  0  0  0  0  0  0  0  0
  -14.6510  -25.7190   -9.6160 C   0  0  0  0  0  0  0  0  0  0  0  0
  -14.5240  -25.3200  -11.0270 C   0  0  0  0  0  0  0  0  0  0  0  0
  -13.5880  -25.8540   -8.7410 C   0  0  0  0  0  0  0  0  0  0  0  0
  -13.6290  -26.2670   -7.4980 N   0  0  0  0  0  0  0  0  0  0  0  0
  -14.8750  -26.5220   -6.9870 C   0  0  0  0  0  0  0  0  0  0  0  0
  -12.3640  -25.5990   -9.2250 O   0  0  0  0  0  0  0  0  0  0  0  0
  -11.8530  -26.3960   -8.6660 H   0  0  0  0  0  0  0  0  0  0  0  0
  -19.7140  -26.4640   -4.5170 O   0  0  0  0  0  0  0  0  0  0  0  0
  -20.7160  -26.3020   -4.6300 H   0  0  0  0  0  0  0  0  0  0  0  0
  -20.8680  -25.7410   -7.7060 C   0  0  0  0  0  0  0  0  0  0  0  0
  -21.8480  -25.6780   -6.6870 O   0  0  0  0  0  0  0  0  0  0  0  0
  -23.3710  -25.4540   -7.2230 P   0  0  0  0  0  0  0  0  0  0  0  0
  -24.1100  -24.9390   -5.9540 O   0  0  0  0  0  0  0  0  0  0  0  0
  -23.1090  -24.3970   -8.2850 O   0  0  0  0  0  0  0  0  0  0  0  0
  -23.8150  -26.8150   -7.7050 O   0  0  0  0  0  0  0  0  0  0  0  0
  1 15  1  1  0  0  0
  2 17  1  6  0  0  0
  2  1  1  0  0  0  0
  3  4  1  0  0  0  0
  3  2  1  0  0  0  0
  4  6  1  6  0  0  0
  4  5  1  0  0  0  0
  5  1  1  0  0  0  0
  6 12  2  0  0  0  0
  7  6  1  0  0  0  0
  8  7  2  0  0  0  0
  8 10  1  0  0  0  0
  9  8  1  0  0  0  0
 10 11  2  0  0  0  0
 11 12  1  0  0  0  0
 13 10  1  0  0  0  0
 13 14  1  0  0  0  0
 16 15  1  0  0  0  0
 17 18  1  0  0  0  0
 19 18  1  0  0  0  0
 19 20  1  0  0  0  0
 21 19  2  0  0  0  0
 22 19  1  0  0  0  0
M  END
>  <minimizedAffinity>
-7.56495857

$$$$

 OpenBabel12271914493D

 22 23  0  0  1  0  0  0  0  0999 V2000
  -14.0150  -26.2810   -9.9440 C   0  0  2  0  0  0  0  0  0  0  0  0
  -15.3980  -25.5910  -10.0790 C   0  0  2  0  0  0  0  0  0  0  0  0
  -16.1200  -26.0100   -8.8890 O   0  0  0  0  0  0  0  0  0  0  0  0
  -15.1710  -25.9190   -7.8210 C   0  0  2  0  0  0  0  0  0  0  0  0
  -13.8690  -26.4700   -8.4360 C   0  0  0  0  0  0  0  0  0  0  0  0
  -15.6480  -26.5410   -6.5440 C   0  0  0  0  0  0  0  0  0  0  0  0
  -14.8420  -27.3930   -5.7840 C   0  0  0  0  0  0  0  0  0  0  0  0
  -15.3050  -27.9320   -4.5690 C   0  0  0  0  0  0  0  0  0  0  0  0
  -14.4600  -28.8620   -3.8050 C   0  0  0  0  0  0  0  0  0  0  0  0
  -16.5780  -27.5400   -4.1940 C   0  0  0  0  0  0  0  0  0  0  0  0
  -17.4020  -26.7700   -4.8610 N   0  0  0  0  0  0  0  0  0  0  0  0
  -16.9180  -26.2340   -6.0260 C   0  0  0  0  0  0  0  0  0  0  0  0
  -17.0600  -28.0500   -3.0510 O   0  0  0  0  0  0  0  0  0  0  0  0
  -18.0940  -28.1610   -3.4050 H   0  0  0  0  0  0  0  0  0  0  0  0
  -12.8550  -25.6170  -10.4450 O   0  0  0  0  0  0  0  0  0  0  0  0
  -13.0920  -25.4920  -11.4310 H   0  0  0  0  0  0  0  0  0  0  0  0
  -16.1970  -25.8770  -11.3340 C   0  0  0  0  0  0  0  0  0  0  0  0
  -15.9600  -27.2360  -11.6490 O   0  0  0  0  0  0  0  0  0  0  0  0
  -17.2940  -28.1710  -11.6620 P   0  0  0  0  0  0  0  0  0  0  0  0
  -17.1840  -28.9460  -10.3160 O   0  0  0  0  0  0  0  0  0  0  0  0
  -18.3600  -27.0870  -11.6920 O   0  0  0  0  0  0  0  0  0  0  0  0
  -17.1530  -29.0290  -12.8980 O   0  0  0  0  0  0  0  0  0  0  0  0
  1 15  1  1  0  0  0
  1  5  1  0  0  0  0
  2 17  1  6  0  0  0
  2  1  1  0  0  0  0
  2  3  1  0  0  0  0
  3  4  1  0  0  0  0
  4  6  1  1  0  0  0
  5  4  1  0  0  0  0
  6 12  2  0  0  0  0
  6  7  1  0  0  0  0
  7  8  2  0  0  0  0
  8 10  1  0  0  0  0
  8  9  1  0  0  0  0
 10 13  1  0  0  0  0
 11 10  2  0  0  0  0
 12 11  1  0  0  0  0
 14 13  1  0  0  0  0
 16 15  1  0  0  0  0
 18 17  1  0  0  0  0
 19 18  1  0  0  0  0
 19 20  1  0  0  0  0
 21 19  1  0  0  0  0
 22 19  2  0  0  0  0
M  END
>  <minimizedAffinity>
-7.39582968

$$$$

 OpenBabel12271914493D

 22 23  0  0  1  0  0  0  0  0999 V2000
  -13.1910  -25.9250   -9.9430 C   0  0  2  0  0  0  0  0  0  0  0  0
  -14.5780  -25.3580  -10.3490 C   0  0  2  0  0  0  0  0  0  0  0  0
  -15.4600  -25.7770   -9.2720 O   0  0  0  0  0  0  0  0  0  0  0  0
  -14.7160  -25.5570   -8.0690 C   0  0  2  0  0  0  0  0  0  0  0  0
  -13.2930  -26.0270   -8.4230 C   0  0  0  0  0  0  0  0  0  0  0  0
  -15.3580  -26.1530   -6.8530 C   0  0  0  0  0  0  0  0  0  0  0  0
  -16.6650  -25.8350   -6.4710 C   0  0  0  0  0  0  0  0  0  0  0  0
  -17.2540  -26.4390   -5.3440 C   0  0  0  0  0  0  0  0  0  0  0  0
  -18.6140  -26.0600   -4.9300 C   0  0  0  0  0  0  0  0  0  0  0  0
  -16.4630  -27.3620   -4.6840 C   0  0  0  0  0  0  0  0  0  0  0  0
  -15.2260  -27.6930   -4.9640 N   0  0  0  0  0  0  0  0  0  0  0  0
  -14.6830  -27.1130   -6.0810 C   0  0  0  0  0  0  0  0  0  0  0  0
  -16.9850  -27.9440   -3.5950 O   0  0  0  0  0  0  0  0  0  0  0  0
  -16.0490  -27.9640   -3.0190 H   0  0  0  0  0  0  0  0  0  0  0  0
  -12.0150  -25.1920  -10.2850 O   0  0  0  0  0  0  0  0  0  0  0  0
  -12.0890  -25.1350  -11.3020 H   0  0  0  0  0  0  0  0  0  0  0  0
  -15.1280  -25.7690  -11.7000 C   0  0  0  0  0  0  0  0  0  0  0  0
  -16.4790  -26.1280  -11.4800 O   0  0  0  0  0  0  0  0  0  0  0  0
  -17.4320  -26.0210  -12.7970 P   0  0  0  0  0  0  0  0  0  0  0  0
  -18.1930  -24.6840  -12.5640 O   0  0  0  0  0  0  0  0  0  0  0  0
  -16.3620  -25.9700  -13.8770 O   0  0  0  0  0  0  0  0  0  0  0  0
  -18.2980  -27.2580  -12.7490 O   0  0  0  0  0  0  0  0  0  0  0  0
  1 15  1  1  0  0  0
  1  5  1  0  0  0  0
  2 17  1  6  0  0  0
  2  1  1  0  0  0  0
  2  3  1  0  0  0  0
  3  4  1  0  0  0  0
  4  6  1  1  0  0  0
  5  4  1  0  0  0  0
  6  7  1  0  0  0  0
  6 12  2  0  0  0  0
  7  8  2  0  0  0  0
  8  9  1  0  0  0  0
  8 10  1  0  0  0  0
 10 13  1  0  0  0  0
 11 10  2  0  0  0  0
 12 11  1  0  0  0  0
 13 14  1  0  0  0  0
 16 15  1  0  0  0  0
 17 18  1  0  0  0  0
 19 22  1  0  0  0  0
 19 20  1  0  0  0  0
 19 18  1  0  0  0  0
 21 19  2  0  0  0  0
M  END
>  <minimizedAffinity>
-7.3805604

$$$$

 OpenBabel12271914493D

 22 23  0  0  1  0  0  0  0  0999 V2000
  -17.8080  -25.3420   -6.8940 C   0  0  2  0  0  0  0  0  0  0  0  0
  -18.3490  -26.4940   -7.7820 C   0  0  2  0  0  0  0  0  0  0  0  0
  -17.4430  -26.5190   -8.9190 O   0  0  0  0  0  0  0  0  0  0  0  0
  -16.1350  -26.3510   -8.3630 C   0  0  2  0  0  0  0  0  0  0  0  0
  -16.3310  -25.2770   -7.2760 C   0  0  0  0  0  0  0  0  0  0  0  0
  -15.0760  -26.1050   -9.3950 C   0  0  0  0  0  0  0  0  0  0  0  0
  -15.3600  -26.0910  -10.7630 C   0  0  0  0  0  0  0  0  0  0  0  0
  -14.3510  -25.8200  -11.7070 C   0  0  0  0  0  0  0  0  0  0  0  0
  -14.6580  -25.8540  -13.1450 C   0  0  0  0  0  0  0  0  0  0  0  0
  -13.1000  -25.5550  -11.1780 C   0  0  0  0  0  0  0  0  0  0  0  0
  -12.7510  -25.5750   -9.9150 N   0  0  0  0  0  0  0  0  0  0  0  0
  -13.7550  -25.8130   -9.0140 C   0  0  0  0  0  0  0  0  0  0  0  0
  -12.1100  -25.3120  -12.0480 O   0  0  0  0  0  0  0  0  0  0  0  0
  -11.3290  -25.8350  -11.4790 H   0  0  0  0  0  0  0  0  0  0  0  0
  -17.9190  -25.4470   -5.4750 O   0  0  0  0  0  0  0  0  0  0  0  0
  -18.9280  -25.5460   -5.3490 H   0  0  0  0  0  0  0  0  0  0  0  0
  -19.7930  -26.4050   -8.2320 C   0  0  0  0  0  0  0  0  0  0  0  0
  -20.4910  -25.7590   -7.1840 O   0  0  0  0  0  0  0  0  0  0  0  0
  -22.0710  -25.4970   -7.4830 P   0  0  0  0  0  0  0  0  0  0  0  0
  -22.7600  -26.0570   -6.2040 O   0  0  0  0  0  0  0  0  0  0  0  0
  -22.0580  -23.9810   -7.5940 O   0  0  0  0  0  0  0  0  0  0  0  0
  -22.3590  -26.2740   -8.7470 O   0  0  0  0  0  0  0  0  0  0  0  0
  1 15  1  1  0  0  0
  2 17  1  6  0  0  0
  2  1  1  0  0  0  0
  3  4  1  0  0  0  0
  3  2  1  0  0  0  0
  4  6  1  6  0  0  0
  4  5  1  0  0  0  0
  5  1  1  0  0  0  0
  6 12  2  0  0  0  0
  7  6  1  0  0  0  0
  8 10  1  0  0  0  0
  8  7  2  0  0  0  0
  9  8  1  0  0  0  0
 10 11  2  0  0  0  0
 11 12  1  0  0  0  0
 13 14  1  0  0  0  0
 13 10  1  0  0  0  0
 15 16  1  0  0  0  0
 17 18  1  0  0  0  0
 19 18  1  0  0  0  0
 19 20  1  0  0  0  0
 21 19  1  0  0  0  0
 22 19  2  0  0  0  0
M  END
>  <minimizedAffinity>
-6.98818874

$$$$

 OpenBabel12271914493D

 22 23  0  0  1  0  0  0  0  0999 V2000
  -15.6550  -27.0680   -5.4280 C   0  0  2  0  0  0  0  0  0  0  0  0
  -16.9290  -26.8160   -6.2770 C   0  0  2  0  0  0  0  0  0  0  0  0
  -16.4170  -26.3150   -7.5420 O   0  0  0  0  0  0  0  0  0  0  0  0
  -15.2850  -27.1380   -7.8430 C   0  0  2  0  0  0  0  0  0  0  0  0
  -14.5780  -27.3040   -6.4840 C   0  0  0  0  0  0  0  0  0  0  0  0
  -14.4670  -26.6290   -8.9900 C   0  0  0  0  0  0  0  0  0  0  0  0
  -14.9880  -26.5140  -10.2820 C   0  0  0  0  0  0  0  0  0  0  0  0
  -14.2050  -25.9980  -11.3330 C   0  0  0  0  0  0  0  0  0  0  0  0
  -14.7560  -25.9250  -12.6950 C   0  0  0  0  0  0  0  0  0  0  0  0
  -12.9260  -25.6060  -10.9820 C   0  0  0  0  0  0  0  0  0  0  0  0
  -12.3590  -25.7060   -9.8050 N   0  0  0  0  0  0  0  0  0  0  0  0
  -13.1480  -26.1850   -8.7920 C   0  0  0  0  0  0  0  0  0  0  0  0
  -12.1450  -25.1270  -11.9610 O   0  0  0  0  0  0  0  0  0  0  0  0
  -11.2150  -25.5840  -11.5970 H   0  0  0  0  0  0  0  0  0  0  0  0
  -15.6420  -28.1510   -4.4980 O   0  0  0  0  0  0  0  0  0  0  0  0
  -16.4310  -27.9190   -3.8920 H   0  0  0  0  0  0  0  0  0  0  0  0
  -17.9750  -25.8840   -5.7000 C   0  0  0  0  0  0  0  0  0  0  0  0
  -19.2210  -26.5270   -5.8900 O   0  0  0  0  0  0  0  0  0  0  0  0
  -20.1790  -25.8290   -7.0090 P   0  0  0  0  0  0  0  0  0  0  0  0
  -19.5640  -24.4070   -7.1500 O   0  0  0  0  0  0  0  0  0  0  0  0
  -19.9170  -26.7620   -8.1810 O   0  0  0  0  0  0  0  0  0  0  0  0
  -21.5640  -25.8610   -6.4050 O   0  0  0  0  0  0  0  0  0  0  0  0
  1 15  1  1  0  0  0
  2 17  1  1  0  0  0
  2  1  1  0  0  0  0
  3  2  1  0  0  0  0
  4  6  1  6  0  0  0
  4  3  1  0  0  0  0
  4  5  1  0  0  0  0
  5  1  1  0  0  0  0
  6 12  2  0  0  0  0
  7  6  1  0  0  0  0
  8 10  1  0  0  0  0
  8  7  2  0  0  0  0
  9  8  1  0  0  0  0
 10 11  2  0  0  0  0
 11 12  1  0  0  0  0
 13 14  1  0  0  0  0
 13 10  1  0  0  0  0
 15 16  1  0  0  0  0
 18 17  1  0  0  0  0
 19 22  1  0  0  0  0
 19 18  1  0  0  0  0
 20 19  1  0  0  0  0
 21 19  2  0  0  0  0
M  END
>  <minimizedAffinity>
-6.98295355

$$$$

 OpenBabel12271914493D

 22 23  0  0  1  0  0  0  0  0999 V2000
  -19.6220  -25.7190   -6.7200 C   0  0  2  0  0  0  0  0  0  0  0  0
  -20.0860  -26.6450   -7.8760 C   0  0  2  0  0  0  0  0  0  0  0  0
  -19.0380  -26.5130   -8.8760 O   0  0  0  0  0  0  0  0  0  0  0  0
  -17.8100  -26.5390   -8.1420 C   0  0  2  0  0  0  0  0  0  0  0  0
  -18.1060  -25.6800   -6.8970 C   0  0  0  0  0  0  0  0  0  0  0  0
  -16.6140  -26.1730   -8.9660 C   0  0  0  0  0  0  0  0  0  0  0  0
  -15.3110  -26.2720   -8.4710 C   0  0  0  0  0  0  0  0  0  0  0  0
  -14.2050  -25.9570   -9.2830 C   0  0  0  0  0  0  0  0  0  0  0  0
  -12.8420  -26.0250   -8.7320 C   0  0  0  0  0  0  0  0  0  0  0  0
  -14.5090  -25.5730  -10.5770 C   0  0  0  0  0  0  0  0  0  0  0  0
  -15.6990  -25.4300  -11.1040 N   0  0  0  0  0  0  0  0  0  0  0  0
  -16.7590  -25.7700  -10.3050 C   0  0  0  0  0  0  0  0  0  0  0  0
  -13.4800  -25.2450  -11.3730 O   0  0  0  0  0  0  0  0  0  0  0  0
  -13.9950  -24.4230  -11.8890 H   0  0  0  0  0  0  0  0  0  0  0  0
  -19.9260  -26.0830   -5.3740 O   0  0  0  0  0  0  0  0  0  0  0  0
  -20.9460  -26.1380   -5.3950 H   0  0  0  0  0  0  0  0  0  0  0  0
  -21.4520  -26.3780   -8.4740 C   0  0  0  0  0  0  0  0  0  0  0  0
  -21.6460  -24.9790   -8.3990 O   0  0  0  0  0  0  0  0  0  0  0  0
  -22.6070  -24.3640   -9.5630 P   0  0  0  0  0  0  0  0  0  0  0  0
  -21.8590  -24.7600  -10.8700 O   0  0  0  0  0  0  0  0  0  0  0  0
  -23.8750  -25.1560   -9.2850 O   0  0  0  0  0  0  0  0  0  0  0  0
  -22.6500  -22.8800   -9.2850 O   0  0  0  0  0  0  0  0  0  0  0  0
  1 15  1  1  0  0  0
  2 17  1  6  0  0  0
  2  1  1  0  0  0  0
  3  4  1  0  0  0  0
  3  2  1  0  0  0  0
  4  6  1  6  0  0  0
  4  5  1  0  0  0  0
  5  1  1  0  0  0  0
  6  7  1  0  0  0  0
  8  9  1  0  0  0  0
  8  7  2  0  0  0  0
 10  8  1  0  0  0  0
 11 10  2  0  0  0  0
 11 12  1  0  0  0  0
 12  6  2  0  0  0  0
 13 10  1  0  0  0  0
 14 13  1  0  0  0  0
 16 15  1  0  0  0  0
 17 18  1  0  0  0  0
 19 22  1  0  0  0  0
 19 21  1  0  0  0  0
 19 18  1  0  0  0  0
 20 19  2  0  0  0  0
M  END
>  <minimizedAffinity>
-6.79792833

$$$$
