
 OpenBabel12271914503D

 24 27  0  0  0  0  0  0  0  0999 V2000
  -16.3770  -26.4290  -11.2800 N   0  0  0  0  0  0  0  0  0  0  0  0
  -17.6380  -27.0840  -11.2670 C   0  0  0  0  0  0  0  0  0  0  0  0
  -18.6030  -26.7450  -10.4250 N   0  0  0  0  0  0  0  0  0  0  0  0
  -19.8160  -26.0720  -10.9420 C   0  0  0  0  0  0  0  0  0  0  0  0
  -21.0690  -26.8050  -10.4970 C   0  0  0  0  0  0  0  0  0  0  0  0
  -21.1780  -26.8850   -8.9630 N   0  0  0  0  0  0  0  0  0  0  0  0
  -21.7500  -26.1220   -8.6470 H   0  0  0  0  0  0  0  0  0  0  0  0
  -21.5960  -27.7800   -8.7410 H   0  0  0  0  0  0  0  0  0  0  0  0
  -19.8140  -26.8140   -8.2340 C   0  0  0  0  0  0  0  0  0  0  0  0
  -18.7070  -27.4140   -9.1200 C   0  0  0  0  0  0  0  0  0  0  0  0
  -17.6660  -28.0020  -12.1880 N   0  0  0  0  0  0  0  0  0  0  0  0
  -16.4610  -28.0010  -12.8360 C   0  0  0  0  0  0  0  0  0  0  0  0
  -15.9930  -28.7990  -13.9050 C   0  0  0  0  0  0  0  0  0  0  0  0
  -14.6900  -28.5900  -14.3740 C   0  0  0  0  0  0  0  0  0  0  0  0
  -13.8930  -27.6190  -13.7970 C   0  0  0  0  0  0  0  0  0  0  0  0
  -14.3540  -26.8140  -12.7270 C   0  0  0  0  0  0  0  0  0  0  0  0
  -15.6380  -27.0310  -12.2800 C   0  0  0  0  0  0  0  0  0  0  0  0
  -15.8730  -25.3960  -10.3520 C   0  0  0  0  0  0  0  0  0  0  0  0
  -15.3990  -25.9970   -9.0280 C   0  0  0  0  0  0  0  0  0  0  0  0
  -14.4180  -27.0030   -8.9620 C   0  0  0  0  0  0  0  0  0  0  0  0
  -14.0220  -27.5600   -7.7490 C   0  0  0  0  0  0  0  0  0  0  0  0
  -14.6100  -27.1340   -6.5560 C   0  0  0  0  0  0  0  0  0  0  0  0
  -15.5860  -26.1340   -6.6030 C   0  0  0  0  0  0  0  0  0  0  0  0
  -15.9720  -25.5820   -7.8350 C   0  0  0  0  0  0  0  0  0  0  0  0
  1  2  1  0  0  0  0
  1 18  1  0  0  0  0
  2  3  1  0  0  0  0
  3 10  1  0  0  0  0
  4  5  1  0  0  0  0
  4  3  1  0  0  0  0
  5  6  1  0  0  0  0
  6  8  1  0  0  0  0
  6  7  1  0  0  0  0
  6  9  1  0  0  0  0
 10  9  1  0  0  0  0
 11  2  2  0  0  0  0
 12 17  1  0  0  0  0
 12 11  2  0  0  0  0
 13 12  1  0  0  0  0
 14 13  1  0  0  0  0
 14 15  2  0  0  0  0
 15 16  1  0  0  0  0
 16 17  2  0  0  0  0
 17  1  1  0  0  0  0
 18 19  1  0  0  0  0
 19 20  2  0  0  0  0
 19 24  1  0  0  0  0
 20 21  1  0  0  0  0
 21 22  2  0  0  0  0
 23 22  1  0  0  0  0
 24 23  2  0  0  0  0
M  END
>  <minimizedAffinity>
-7.67635536

$$$$

 OpenBabel12271914503D

 24 27  0  0  0  0  0  0  0  0999 V2000
  -16.4250  -26.1780   -8.9700 N   0  0  0  0  0  0  0  0  0  0  0  0
  -15.1140  -26.3690   -9.4810 C   0  0  0  0  0  0  0  0  0  0  0  0
  -14.8070  -26.1360  -10.7480 N   0  0  0  0  0  0  0  0  0  0  0  0
  -13.9470  -24.9800  -11.0880 C   0  0  0  0  0  0  0  0  0  0  0  0
  -12.7670  -25.4170  -11.9370 C   0  0  0  0  0  0  0  0  0  0  0  0
  -13.2170  -26.0870  -13.2490 N   0  0  0  0  0  0  0  0  0  0  0  0
  -13.2250  -25.3890  -13.9720 H   0  0  0  0  0  0  0  0  0  0  0  0
  -12.5510  -26.8230  -13.4500 H   0  0  0  0  0  0  0  0  0  0  0  0
  -14.6200  -26.7360  -13.1730 C   0  0  0  0  0  0  0  0  0  0  0  0
  -14.9030  -27.2180  -11.7380 C   0  0  0  0  0  0  0  0  0  0  0  0
  -14.3240  -26.7700   -8.5280 N   0  0  0  0  0  0  0  0  0  0  0  0
  -15.0530  -26.8620   -7.3730 C   0  0  0  0  0  0  0  0  0  0  0  0
  -14.6620  -27.2480   -6.0710 C   0  0  0  0  0  0  0  0  0  0  0  0
  -15.6330  -27.2650   -5.0610 C   0  0  0  0  0  0  0  0  0  0  0  0
  -16.9370  -26.9080   -5.3460 C   0  0  0  0  0  0  0  0  0  0  0  0
  -17.3360  -26.5190   -6.6480 C   0  0  0  0  0  0  0  0  0  0  0  0
  -16.3700  -26.5050   -7.6280 C   0  0  0  0  0  0  0  0  0  0  0  0
  -17.6540  -25.8240   -9.7100 C   0  0  0  0  0  0  0  0  0  0  0  0
  -18.5890  -27.0230   -9.8770 C   0  0  0  0  0  0  0  0  0  0  0  0
  -18.1140  -28.3210  -10.1440 C   0  0  0  0  0  0  0  0  0  0  0  0
  -18.9830  -29.3930  -10.3240 C   0  0  0  0  0  0  0  0  0  0  0  0
  -20.3640  -29.1980  -10.2550 C   0  0  0  0  0  0  0  0  0  0  0  0
  -20.8520  -27.9150   -9.9890 C   0  0  0  0  0  0  0  0  0  0  0  0
  -19.9620  -26.8450   -9.8080 C   0  0  0  0  0  0  0  0  0  0  0  0
  1 17  1  0  0  0  0
  2  1  1  0  0  0  0
  2 11  2  0  0  0  0
  3  2  1  0  0  0  0
  4  3  1  0  0  0  0
  5  4  1  0  0  0  0
  6  9  1  0  0  0  0
  6  5  1  0  0  0  0
  7  6  1  0  0  0  0
  8  6  1  0  0  0  0
  9 10  1  0  0  0  0
 10  3  1  0  0  0  0
 11 12  2  0  0  0  0
 12 13  1  0  0  0  0
 13 14  1  0  0  0  0
 15 14  2  0  0  0  0
 16 15  1  0  0  0  0
 17 12  1  0  0  0  0
 17 16  2  0  0  0  0
 18  1  1  0  0  0  0
 19 24  1  0  0  0  0
 19 18  1  0  0  0  0
 20 19  2  0  0  0  0
 21 22  2  0  0  0  0
 21 20  1  0  0  0  0
 22 23  1  0  0  0  0
 23 24  2  0  0  0  0
M  END
>  <minimizedAffinity>
-7.5557251

$$$$

 OpenBabel12271914503D

 24 27  0  0  0  0  0  0  0  0999 V2000
  -16.7860  -27.6100   -9.4250 N   0  0  0  0  0  0  0  0  0  0  0  0
  -16.6290  -27.4720  -10.8300 C   0  0  0  0  0  0  0  0  0  0  0  0
  -17.5580  -27.8640  -11.6890 N   0  0  0  0  0  0  0  0  0  0  0  0
  -18.3250  -26.8490  -12.4450 C   0  0  0  0  0  0  0  0  0  0  0  0
  -18.2660  -27.1290  -13.9360 C   0  0  0  0  0  0  0  0  0  0  0  0
  -18.8310  -28.5190  -14.2840 N   0  0  0  0  0  0  0  0  0  0  0  0
  -19.7960  -28.4110  -14.5420 H   0  0  0  0  0  0  0  0  0  0  0  0
  -18.2780  -28.8810  -15.0520 H   0  0  0  0  0  0  0  0  0  0  0  0
  -18.7410  -29.5410  -13.1250 C   0  0  0  0  0  0  0  0  0  0  0  0
  -17.5230  -29.2280  -12.2360 C   0  0  0  0  0  0  0  0  0  0  0  0
  -15.4850  -26.9100  -11.0920 N   0  0  0  0  0  0  0  0  0  0  0  0
  -14.8480  -26.6560   -9.9070 C   0  0  0  0  0  0  0  0  0  0  0  0
  -13.5920  -26.0600   -9.6510 C   0  0  0  0  0  0  0  0  0  0  0  0
  -13.1730  -25.9320   -8.3200 C   0  0  0  0  0  0  0  0  0  0  0  0
  -13.9820  -26.3810   -7.2920 C   0  0  0  0  0  0  0  0  0  0  0  0
  -15.2420  -26.9770   -7.5410 C   0  0  0  0  0  0  0  0  0  0  0  0
  -15.6390  -27.0920   -8.8530 C   0  0  0  0  0  0  0  0  0  0  0  0
  -17.8800  -28.2760   -8.6880 C   0  0  0  0  0  0  0  0  0  0  0  0
  -18.9180  -27.2760   -8.1750 C   0  0  0  0  0  0  0  0  0  0  0  0
  -18.8170  -26.6620   -6.9130 C   0  0  0  0  0  0  0  0  0  0  0  0
  -19.7890  -25.7780   -6.4510 C   0  0  0  0  0  0  0  0  0  0  0  0
  -20.9070  -25.4900   -7.2380 C   0  0  0  0  0  0  0  0  0  0  0  0
  -21.0210  -26.0920   -8.4940 C   0  0  0  0  0  0  0  0  0  0  0  0
  -20.0320  -26.9790   -8.9450 C   0  0  0  0  0  0  0  0  0  0  0  0
  1 17  1  0  0  0  0
  1 18  1  0  0  0  0
  2  1  1  0  0  0  0
  3  2  1  0  0  0  0
  4  3  1  0  0  0  0
  5  4  1  0  0  0  0
  6  5  1  0  0  0  0
  6  9  1  0  0  0  0
  7  6  1  0  0  0  0
  8  6  1  0  0  0  0
  9 10  1  0  0  0  0
 10  3  1  0  0  0  0
 11  2  2  0  0  0  0
 11 12  2  0  0  0  0
 12 13  1  0  0  0  0
 12 17  1  0  0  0  0
 13 14  1  0  0  0  0
 14 15  2  0  0  0  0
 16 15  1  0  0  0  0
 17 16  2  0  0  0  0
 18 19  1  0  0  0  0
 19 20  2  0  0  0  0
 20 21  1  0  0  0  0
 22 21  2  0  0  0  0
 23 22  1  0  0  0  0
 24 23  2  0  0  0  0
 24 19  1  0  0  0  0
M  END
>  <minimizedAffinity>
-7.55193615

$$$$

 OpenBabel12271914503D

 24 27  0  0  0  0  0  0  0  0999 V2000
  -16.9070  -26.4810   -9.7320 N   0  0  0  0  0  0  0  0  0  0  0  0
  -18.0240  -27.2410   -9.2930 C   0  0  0  0  0  0  0  0  0  0  0  0
  -19.0810  -27.4560  -10.0620 N   0  0  0  0  0  0  0  0  0  0  0  0
  -19.3320  -28.8150  -10.5910 C   0  0  0  0  0  0  0  0  0  0  0  0
  -20.7420  -29.2700  -10.2620 C   0  0  0  0  0  0  0  0  0  0  0  0
  -21.8060  -28.3200  -10.8460 N   0  0  0  0  0  0  0  0  0  0  0  0
  -22.1050  -28.6880  -11.7310 H   0  0  0  0  0  0  0  0  0  0  0  0
  -22.5690  -28.2840  -10.1800 H   0  0  0  0  0  0  0  0  0  0  0  0
  -21.3030  -26.8710  -11.0580 C   0  0  0  0  0  0  0  0  0  0  0  0
  -20.2210  -26.5280  -10.0180 C   0  0  0  0  0  0  0  0  0  0  0  0
  -17.8150  -27.6710   -8.0830 N   0  0  0  0  0  0  0  0  0  0  0  0
  -16.5860  -27.2290   -7.6740 C   0  0  0  0  0  0  0  0  0  0  0  0
  -15.9000  -27.4240   -6.4540 C   0  0  0  0  0  0  0  0  0  0  0  0
  -14.6380  -26.8380   -6.2960 C   0  0  0  0  0  0  0  0  0  0  0  0
  -14.0870  -26.0900   -7.3200 C   0  0  0  0  0  0  0  0  0  0  0  0
  -14.7670  -25.8910   -8.5460 C   0  0  0  0  0  0  0  0  0  0  0  0
  -16.0040  -26.4770   -8.6860 C   0  0  0  0  0  0  0  0  0  0  0  0
  -16.7520  -25.7270  -10.9940 C   0  0  0  0  0  0  0  0  0  0  0  0
  -15.8830  -26.4760  -12.0060 C   0  0  0  0  0  0  0  0  0  0  0  0
  -14.5590  -26.0950  -12.2940 C   0  0  0  0  0  0  0  0  0  0  0  0
  -13.7950  -26.7700  -13.2410 C   0  0  0  0  0  0  0  0  0  0  0  0
  -14.3390  -27.8470  -13.9450 C   0  0  0  0  0  0  0  0  0  0  0  0
  -15.6520  -28.2380  -13.6700 C   0  0  0  0  0  0  0  0  0  0  0  0
  -16.4090  -27.5480  -12.7110 C   0  0  0  0  0  0  0  0  0  0  0  0
  1  2  1  0  0  0  0
  1 17  1  0  0  0  0
  2 11  2  0  0  0  0
  3 10  1  0  0  0  0
  3  2  1  0  0  0  0
  4  5  1  0  0  0  0
  4  3  1  0  0  0  0
  6  5  1  0  0  0  0
  6  8  1  0  0  0  0
  7  6  1  0  0  0  0
  9  6  1  0  0  0  0
  9 10  1  0  0  0  0
 11 12  2  0  0  0  0
 12 13  1  0  0  0  0
 13 14  1  0  0  0  0
 15 14  2  0  0  0  0
 16 15  1  0  0  0  0
 17 16  2  0  0  0  0
 17 12  1  0  0  0  0
 18  1  1  0  0  0  0
 19 18  1  0  0  0  0
 20 19  1  0  0  0  0
 21 20  2  0  0  0  0
 22 23  2  0  0  0  0
 22 21  1  0  0  0  0
 23 24  1  0  0  0  0
 24 19  2  0  0  0  0
M  END
>  <minimizedAffinity>
-7.4950223

$$$$

 OpenBabel12271914503D

 24 27  0  0  0  0  0  0  0  0999 V2000
  -17.7650  -27.4870   -8.8980 N   0  0  0  0  0  0  0  0  0  0  0  0
  -18.9470  -27.0070   -9.5230 C   0  0  0  0  0  0  0  0  0  0  0  0
  -19.2270  -27.2540  -10.7940 N   0  0  0  0  0  0  0  0  0  0  0  0
  -20.3370  -28.1740  -11.1290 C   0  0  0  0  0  0  0  0  0  0  0  0
  -21.3080  -27.5180  -12.0940 C   0  0  0  0  0  0  0  0  0  0  0  0
  -20.6200  -27.0930  -13.4050 N   0  0  0  0  0  0  0  0  0  0  0  0
  -20.7500  -27.8250  -14.0810 H   0  0  0  0  0  0  0  0  0  0  0  0
  -21.0560  -26.2290  -13.7030 H   0  0  0  0  0  0  0  0  0  0  0  0
  -19.1030  -26.8220  -13.2570 C   0  0  0  0  0  0  0  0  0  0  0  0
  -18.7910  -26.3150  -11.8370 C   0  0  0  0  0  0  0  0  0  0  0  0
  -19.6610  -26.3420   -8.6620 N   0  0  0  0  0  0  0  0  0  0  0  0
  -19.0050  -26.3480   -7.4610 C   0  0  0  0  0  0  0  0  0  0  0  0
  -19.3590  -25.7730   -6.2200 C   0  0  0  0  0  0  0  0  0  0  0  0
  -18.4820  -25.9250   -5.1380 C   0  0  0  0  0  0  0  0  0  0  0  0
  -17.3010  -26.6260   -5.2960 C   0  0  0  0  0  0  0  0  0  0  0  0
  -16.9390  -27.2070   -6.5370 C   0  0  0  0  0  0  0  0  0  0  0  0
  -17.8150  -27.0510   -7.5870 C   0  0  0  0  0  0  0  0  0  0  0  0
  -16.6290  -28.2020   -9.5150 C   0  0  0  0  0  0  0  0  0  0  0  0
  -15.3650  -27.3420   -9.5590 C   0  0  0  0  0  0  0  0  0  0  0  0
  -14.2490  -27.5960   -8.7390 C   0  0  0  0  0  0  0  0  0  0  0  0
  -13.1200  -26.7830   -8.7710 C   0  0  0  0  0  0  0  0  0  0  0  0
  -13.0770  -25.6740   -9.6190 C   0  0  0  0  0  0  0  0  0  0  0  0
  -14.1760  -25.4090  -10.4400 C   0  0  0  0  0  0  0  0  0  0  0  0
  -15.3070  -26.2400  -10.3970 C   0  0  0  0  0  0  0  0  0  0  0  0
  1 17  1  0  0  0  0
  2  1  1  0  0  0  0
  2 11  2  0  0  0  0
  3  2  1  0  0  0  0
  4  3  1  0  0  0  0
  5  4  1  0  0  0  0
  6  9  1  0  0  0  0
  6  5  1  0  0  0  0
  7  6  1  0  0  0  0
  8  6  1  0  0  0  0
  9 10  1  0  0  0  0
 10  3  1  0  0  0  0
 11 12  2  0  0  0  0
 12 13  1  0  0  0  0
 13 14  1  0  0  0  0
 15 14  2  0  0  0  0
 16 15  1  0  0  0  0
 17 12  1  0  0  0  0
 17 16  2  0  0  0  0
 18  1  1  0  0  0  0
 19 18  1  0  0  0  0
 19 20  2  0  0  0  0
 21 20  1  0  0  0  0
 22 21  2  0  0  0  0
 23 24  2  0  0  0  0
 23 22  1  0  0  0  0
 24 19  1  0  0  0  0
M  END
>  <minimizedAffinity>
-7.41695499

$$$$

 OpenBabel12271914503D

 24 27  0  0  0  0  0  0  0  0999 V2000
  -17.1900  -27.1850  -10.6030 N   0  0  0  0  0  0  0  0  0  0  0  0
  -16.5630  -26.2650  -11.4850 C   0  0  0  0  0  0  0  0  0  0  0  0
  -15.2570  -26.2780  -11.7100 N   0  0  0  0  0  0  0  0  0  0  0  0
  -14.7510  -26.7140  -13.0310 C   0  0  0  0  0  0  0  0  0  0  0  0
  -13.8200  -25.6710  -13.6220 C   0  0  0  0  0  0  0  0  0  0  0  0
  -12.6110  -25.3930  -12.7090 N   0  0  0  0  0  0  0  0  0  0  0  0
  -11.8450  -25.9660  -13.0170 H   0  0  0  0  0  0  0  0  0  0  0  0
  -12.3950  -24.4070  -12.7940 H   0  0  0  0  0  0  0  0  0  0  0  0
  -12.8750  -25.6860  -11.2120 C   0  0  0  0  0  0  0  0  0  0  0  0
  -14.3620  -25.4570  -10.8820 C   0  0  0  0  0  0  0  0  0  0  0  0
  -17.4560  -25.4760  -12.0070 N   0  0  0  0  0  0  0  0  0  0  0  0
  -18.6830  -25.8250  -11.5090 C   0  0  0  0  0  0  0  0  0  0  0  0
  -19.9630  -25.2810  -11.7620 C   0  0  0  0  0  0  0  0  0  0  0  0
  -21.0650  -25.8320  -11.0950 C   0  0  0  0  0  0  0  0  0  0  0  0
  -20.8900  -26.8840  -10.2160 C   0  0  0  0  0  0  0  0  0  0  0  0
  -19.6100  -27.4360   -9.9590 C   0  0  0  0  0  0  0  0  0  0  0  0
  -18.5390  -26.8850  -10.6240 C   0  0  0  0  0  0  0  0  0  0  0  0
  -16.5550  -28.1910   -9.7270 C   0  0  0  0  0  0  0  0  0  0  0  0
  -16.1820  -27.6100   -8.3620 C   0  0  0  0  0  0  0  0  0  0  0  0
  -14.8480  -27.3670   -7.9830 C   0  0  0  0  0  0  0  0  0  0  0  0
  -14.5270  -26.8670   -6.7240 C   0  0  0  0  0  0  0  0  0  0  0  0
  -15.5350  -26.6060   -5.7940 C   0  0  0  0  0  0  0  0  0  0  0  0
  -16.8640  -26.8410   -6.1550 C   0  0  0  0  0  0  0  0  0  0  0  0
  -17.1720  -27.3440   -7.4290 C   0  0  0  0  0  0  0  0  0  0  0  0
  1 18  1  0  0  0  0
  2  1  1  0  0  0  0
  3  2  1  0  0  0  0
  3 10  1  0  0  0  0
  4  3  1  0  0  0  0
  5  4  1  0  0  0  0
  5  6  1  0  0  0  0
  6  9  1  0  0  0  0
  7  6  1  0  0  0  0
  8  6  1  0  0  0  0
  9 10  1  0  0  0  0
 11 12  2  0  0  0  0
 11  2  2  0  0  0  0
 12 17  1  0  0  0  0
 13 12  1  0  0  0  0
 13 14  1  0  0  0  0
 14 15  2  0  0  0  0
 15 16  1  0  0  0  0
 17  1  1  0  0  0  0
 17 16  2  0  0  0  0
 18 19  1  0  0  0  0
 19 20  2  0  0  0  0
 19 24  1  0  0  0  0
 20 21  1  0  0  0  0
 21 22  2  0  0  0  0
 23 22  1  0  0  0  0
 24 23  2  0  0  0  0
M  END
>  <minimizedAffinity>
-7.26481104

$$$$

 OpenBabel12271914503D

 24 27  0  0  0  0  0  0  0  0999 V2000
  -16.3370  -26.8160  -12.0990 N   0  0  0  0  0  0  0  0  0  0  0  0
  -17.0330  -28.0420  -12.2740 C   0  0  0  0  0  0  0  0  0  0  0  0
  -18.0690  -28.3820  -11.5230 N   0  0  0  0  0  0  0  0  0  0  0  0
  -19.4240  -28.4100  -12.1200 C   0  0  0  0  0  0  0  0  0  0  0  0
  -20.0930  -29.7500  -11.8730 C   0  0  0  0  0  0  0  0  0  0  0  0
  -20.2220  -30.0620  -10.3700 N   0  0  0  0  0  0  0  0  0  0  0  0
  -21.1340  -29.7720  -10.0650 H   0  0  0  0  0  0  0  0  0  0  0  0
  -20.0940  -31.0610  -10.2620 H   0  0  0  0  0  0  0  0  0  0  0  0
  -19.1600  -29.3580   -9.4900 C   0  0  0  0  0  0  0  0  0  0  0  0
  -17.8600  -29.1550  -10.2900 C   0  0  0  0  0  0  0  0  0  0  0  0
  -16.5050  -28.7110  -13.2570 N   0  0  0  0  0  0  0  0  0  0  0  0
  -15.4640  -27.9810  -13.7660 C   0  0  0  0  0  0  0  0  0  0  0  0
  -14.5800  -28.2650  -14.8310 C   0  0  0  0  0  0  0  0  0  0  0  0
  -13.5810  -27.3320  -15.1360 C   0  0  0  0  0  0  0  0  0  0  0  0
  -13.4760  -26.1640  -14.4040 C   0  0  0  0  0  0  0  0  0  0  0  0
  -14.3590  -25.8720  -13.3360 C   0  0  0  0  0  0  0  0  0  0  0  0
  -15.3360  -26.7980  -13.0520 C   0  0  0  0  0  0  0  0  0  0  0  0
  -16.5300  -25.7960  -11.0470 C   0  0  0  0  0  0  0  0  0  0  0  0
  -15.6570  -26.0650   -9.8210 C   0  0  0  0  0  0  0  0  0  0  0  0
  -14.7350  -27.1270   -9.7660 C   0  0  0  0  0  0  0  0  0  0  0  0
  -13.9720  -27.3750   -8.6290 C   0  0  0  0  0  0  0  0  0  0  0  0
  -14.1170  -26.5690   -7.4970 C   0  0  0  0  0  0  0  0  0  0  0  0
  -15.0270  -25.5100   -7.5350 C   0  0  0  0  0  0  0  0  0  0  0  0
  -15.7890  -25.2730   -8.6900 C   0  0  0  0  0  0  0  0  0  0  0  0
  1 18  1  0  0  0  0
  2  1  1  0  0  0  0
  2  3  1  0  0  0  0
  3 10  1  0  0  0  0
  4  5  1  0  0  0  0
  4  3  1  0  0  0  0
  5  6  1  0  0  0  0
  6  8  1  0  0  0  0
  6  7  1  0  0  0  0
  6  9  1  0  0  0  0
 10  9  1  0  0  0  0
 11  2  2  0  0  0  0
 12 11  2  0  0  0  0
 12 17  1  0  0  0  0
 13 12  1  0  0  0  0
 14 13  1  0  0  0  0
 14 15  2  0  0  0  0
 15 16  1  0  0  0  0
 16 17  2  0  0  0  0
 17  1  1  0  0  0  0
 18 19  1  0  0  0  0
 19 20  2  0  0  0  0
 19 24  1  0  0  0  0
 20 21  1  0  0  0  0
 21 22  2  0  0  0  0
 23 22  1  0  0  0  0
 24 23  2  0  0  0  0
M  END
>  <minimizedAffinity>
-7.08677721

$$$$

 OpenBabel12271914503D

 24 27  0  0  0  0  0  0  0  0999 V2000
  -17.7030  -27.4160  -10.4790 N   0  0  0  0  0  0  0  0  0  0  0  0
  -17.4450  -27.0400  -11.8250 C   0  0  0  0  0  0  0  0  0  0  0  0
  -16.3410  -27.4020  -12.4620 N   0  0  0  0  0  0  0  0  0  0  0  0
  -16.4250  -28.3930  -13.5590 C   0  0  0  0  0  0  0  0  0  0  0  0
  -15.7670  -27.8590  -14.8180 C   0  0  0  0  0  0  0  0  0  0  0  0
  -14.2830  -27.5130  -14.5920 N   0  0  0  0  0  0  0  0  0  0  0  0
  -13.7290  -28.3020  -14.8740 H   0  0  0  0  0  0  0  0  0  0  0  0
  -14.0790  -26.6950  -15.1550 H   0  0  0  0  0  0  0  0  0  0  0  0
  -13.9370  -27.1660  -13.1240 C   0  0  0  0  0  0  0  0  0  0  0  0
  -15.1560  -26.5330  -12.4270 C   0  0  0  0  0  0  0  0  0  0  0  0
  -18.4390  -26.3390  -12.2840 N   0  0  0  0  0  0  0  0  0  0  0  0
  -19.3770  -26.2190  -11.2940 C   0  0  0  0  0  0  0  0  0  0  0  0
  -20.6270  -25.5600  -11.2900 C   0  0  0  0  0  0  0  0  0  0  0  0
  -21.3920  -25.5850  -10.1160 C   0  0  0  0  0  0  0  0  0  0  0  0
  -20.9220  -26.2460   -8.9970 C   0  0  0  0  0  0  0  0  0  0  0  0
  -19.6700  -26.9100   -8.9940 C   0  0  0  0  0  0  0  0  0  0  0  0
  -18.9340  -26.8780  -10.1560 C   0  0  0  0  0  0  0  0  0  0  0  0
  -16.8120  -28.1310   -9.5420 C   0  0  0  0  0  0  0  0  0  0  0  0
  -15.7340  -27.2130   -8.9630 C   0  0  0  0  0  0  0  0  0  0  0  0
  -16.0240  -25.9310   -8.4590 C   0  0  0  0  0  0  0  0  0  0  0  0
  -15.0240  -25.0980   -7.9660 C   0  0  0  0  0  0  0  0  0  0  0  0
  -13.6920  -25.5180   -7.9730 C   0  0  0  0  0  0  0  0  0  0  0  0
  -13.3880  -26.7890   -8.4690 C   0  0  0  0  0  0  0  0  0  0  0  0
  -14.4080  -27.6170   -8.9620 C   0  0  0  0  0  0  0  0  0  0  0  0
  1 17  1  0  0  0  0
  1 18  1  0  0  0  0
  2  1  1  0  0  0  0
  3 10  1  0  0  0  0
  3  2  1  0  0  0  0
  4  3  1  0  0  0  0
  5  6  1  0  0  0  0
  5  4  1  0  0  0  0
  6  9  1  0  0  0  0
  7  6  1  0  0  0  0
  8  6  1  0  0  0  0
  9 10  1  0  0  0  0
 11  2  2  0  0  0  0
 11 12  2  0  0  0  0
 12 13  1  0  0  0  0
 12 17  1  0  0  0  0
 13 14  1  0  0  0  0
 14 15  2  0  0  0  0
 15 16  1  0  0  0  0
 17 16  2  0  0  0  0
 18 19  1  0  0  0  0
 19 24  2  0  0  0  0
 19 20  1  0  0  0  0
 20 21  2  0  0  0  0
 22 21  1  0  0  0  0
 23 22  2  0  0  0  0
 24 23  1  0  0  0  0
M  END
>  <minimizedAffinity>
-7.04234123

$$$$

 OpenBabel12271914503D

 24 27  0  0  0  0  0  0  0  0999 V2000
  -15.8410  -27.1160  -10.2730 N   0  0  0  0  0  0  0  0  0  0  0  0
  -15.5360  -26.5610   -9.0010 C   0  0  0  0  0  0  0  0  0  0  0  0
  -16.2580  -26.8220   -7.9220 N   0  0  0  0  0  0  0  0  0  0  0  0
  -15.6810  -27.6580   -6.8450 C   0  0  0  0  0  0  0  0  0  0  0  0
  -15.7810  -26.9540   -5.5040 C   0  0  0  0  0  0  0  0  0  0  0  0
  -17.2400  -26.6260   -5.1320 N   0  0  0  0  0  0  0  0  0  0  0  0
  -17.5900  -27.3650   -4.5480 H   0  0  0  0  0  0  0  0  0  0  0  0
  -17.2300  -25.7380   -4.6440 H   0  0  0  0  0  0  0  0  0  0  0  0
  -18.1790  -26.4750   -6.3530 C   0  0  0  0  0  0  0  0  0  0  0  0
  -17.3900  -25.9540   -7.5680 C   0  0  0  0  0  0  0  0  0  0  0  0
  -14.4740  -25.8150   -9.0910 N   0  0  0  0  0  0  0  0  0  0  0  0
  -14.0380  -25.8380  -10.3880 C   0  0  0  0  0  0  0  0  0  0  0  0
  -12.9340  -25.1990  -10.9960 C   0  0  0  0  0  0  0  0  0  0  0  0
  -12.7240  -25.3890  -12.3680 C   0  0  0  0  0  0  0  0  0  0  0  0
  -13.5850  -26.1890  -13.0970 C   0  0  0  0  0  0  0  0  0  0  0  0
  -14.6930  -26.8340  -12.4940 C   0  0  0  0  0  0  0  0  0  0  0  0
  -14.8820  -26.6390  -11.1450 C   0  0  0  0  0  0  0  0  0  0  0  0
  -17.0060  -27.9400  -10.6550 C   0  0  0  0  0  0  0  0  0  0  0  0
  -18.2640  -27.0940  -10.8620 C   0  0  0  0  0  0  0  0  0  0  0  0
  -19.4760  -27.3670  -10.2010 C   0  0  0  0  0  0  0  0  0  0  0  0
  -20.6180  -26.6040  -10.4270 C   0  0  0  0  0  0  0  0  0  0  0  0
  -20.5870  -25.5460  -11.3380 C   0  0  0  0  0  0  0  0  0  0  0  0
  -19.3910  -25.2610  -12.0010 C   0  0  0  0  0  0  0  0  0  0  0  0
  -18.2470  -26.0390  -11.7610 C   0  0  0  0  0  0  0  0  0  0  0  0
  1  2  1  0  0  0  0
  2  3  1  0  0  0  0
  3 10  1  0  0  0  0
  3  4  1  0  0  0  0
  4  5  1  0  0  0  0
  5  6  1  0  0  0  0
  6  8  1  0  0  0  0
  6  7  1  0  0  0  0
  9  6  1  0  0  0  0
 10  9  1  0  0  0  0
 11  2  2  0  0  0  0
 12 11  2  0  0  0  0
 13 12  1  0  0  0  0
 14 13  1  0  0  0  0
 15 16  1  0  0  0  0
 15 14  2  0  0  0  0
 16 17  2  0  0  0  0
 17 12  1  0  0  0  0
 17  1  1  0  0  0  0
 18  1  1  0  0  0  0
 19 18  1  0  0  0  0
 19 20  2  0  0  0  0
 21 20  1  0  0  0  0
 22 21  2  0  0  0  0
 23 24  2  0  0  0  0
 23 22  1  0  0  0  0
 24 19  1  0  0  0  0
M  END
>  <minimizedAffinity>
-7.0066309

$$$$
