
 OpenBabel12271914493D

 32 35  0  0  1  0  0  0  0  0999 V2000
  -16.8510  -26.6510  -14.3170 C   0  0  1  0  0  0  0  0  0  0  0  0
  -15.9910  -27.7810  -14.7990 N   0  0  0  0  0  0  0  0  0  0  0  0
  -16.5110  -28.3910  -15.4400 H   0  0  0  0  0  0  0  0  0  0  0  0
  -15.1860  -27.4190  -15.3180 H   0  0  0  0  0  0  0  0  0  0  0  0
  -15.6130  -28.3220  -14.0090 H   0  0  0  0  0  0  0  0  0  0  0  0
  -18.1860  -27.1450  -13.7160 C   0  0  0  0  0  0  0  0  0  0  0  0
  -18.0220  -28.0430  -12.5390 C   0  0  0  0  0  0  0  0  0  0  0  0
  -18.1620  -27.6880  -11.1750 C   0  0  0  0  0  0  0  0  0  0  0  0
  -18.4600  -26.4980  -10.5070 C   0  0  0  0  0  0  0  0  0  0  0  0
  -18.5370  -26.4800   -9.1170 C   0  0  0  0  0  0  0  0  0  0  0  0
  -18.3040  -27.6220   -8.3810 C   0  0  0  0  0  0  0  0  0  0  0  0
  -17.9860  -28.8110   -9.0210 C   0  0  0  0  0  0  0  0  0  0  0  0
  -17.9250  -28.8190  -10.4210 C   0  0  0  0  0  0  0  0  0  0  0  0
  -17.6120  -29.8450  -11.2780 N   0  0  0  0  0  0  0  0  0  0  0  0
  -17.3700  -30.7830  -11.0040 H   0  0  0  0  0  0  0  0  0  0  0  0
  -17.6720  -29.3760  -12.5650 C   0  0  0  0  0  0  0  0  0  0  0  0
  -16.0490  -25.7980  -13.3330 C   0  0  0  0  0  0  0  0  0  0  0  0
  -14.9170  -26.5830  -12.9620 O   0  0  0  0  0  0  0  0  0  0  0  0
  -14.3170  -26.3690  -11.7700 C   0  0  0  0  0  0  0  0  0  0  0  0
  -14.7560  -26.8630  -10.5560 C   0  0  0  0  0  0  0  0  0  0  0  0
  -14.0170  -26.6130   -9.3930 C   0  0  0  0  0  0  0  0  0  0  0  0
  -12.8710  -25.8550   -9.5190 C   0  0  0  0  0  0  0  0  0  0  0  0
  -12.4460  -25.3520  -10.6940 N   0  0  0  0  0  0  0  0  0  0  0  0
  -13.1660  -25.6090  -11.8010 C   0  0  0  0  0  0  0  0  0  0  0  0
  -14.5000  -27.1660   -8.1390 C   0  0  0  0  0  0  0  0  0  0  0  0
  -15.0190  -26.4500   -7.1230 C   0  0  0  0  0  0  0  0  0  0  0  0
  -15.5080  -27.0070   -5.8580 C   0  0  0  0  0  0  0  0  0  0  0  0
  -16.7670  -26.6200   -5.4000 C   0  0  0  0  0  0  0  0  0  0  0  0
  -17.2450  -27.1360   -4.2100 C   0  0  0  0  0  0  0  0  0  0  0  0
  -16.5460  -28.0090   -3.4570 N   0  0  0  0  0  0  0  0  0  0  0  0
  -15.3290  -28.3780   -3.9070 C   0  0  0  0  0  0  0  0  0  0  0  0
  -14.7890  -27.9050   -5.0860 C   0  0  0  0  0  0  0  0  0  0  0  0
  1  6  1  1  0  0  0
  1 17  1  0  0  0  0
  2  1  1  0  0  0  0
  2  5  1  0  0  0  0
  3  2  1  0  0  0  0
  4  2  1  0  0  0  0
  6  7  1  0  0  0  0
  7  8  1  0  0  0  0
  8  9  2  0  0  0  0
  8 13  1  0  0  0  0
  9 10  1  0  0  0  0
 10 11  2  0  0  0  0
 12 11  1  0  0  0  0
 13 12  2  0  0  0  0
 14 15  1  0  0  0  0
 14 13  1  0  0  0  0
 16  7  2  0  0  0  0
 16 14  1  0  0  0  0
 17 18  1  0  0  0  0
 18 19  1  0  0  0  0
 19 20  1  0  0  0  0
 20 21  2  0  0  0  0
 21 25  1  0  0  0  0
 22 21  1  0  0  0  0
 23 22  2  0  0  0  0
 24 19  2  0  0  0  0
 24 23  1  0  0  0  0
 25 26  2  0  0  0  0
 26 27  1  0  0  0  0
 27 28  2  0  0  0  0
 27 32  1  0  0  0  0
 28 29  1  0  0  0  0
 29 30  2  0  0  0  0
 31 30  1  0  0  0  0
 32 31  2  0  0  0  0
M  END
>  <minimizedAffinity>
-8.28238392

$$$$

 OpenBabel12271914493D

 32 35  0  0  1  0  0  0  0  0999 V2000
  -13.5380  -26.2300   -9.0860 C   0  0  1  0  0  0  0  0  0  0  0  0
  -12.1720  -25.7510   -9.4790 N   0  0  0  0  0  0  0  0  0  0  0  0
  -11.5790  -25.6140   -8.6520 H   0  0  0  0  0  0  0  0  0  0  0  0
  -11.7070  -26.4460  -10.0690 H   0  0  0  0  0  0  0  0  0  0  0  0
  -12.2280  -24.8850  -10.0330 H   0  0  0  0  0  0  0  0  0  0  0  0
  -14.1960  -25.3200   -8.0260 C   0  0  0  0  0  0  0  0  0  0  0  0
  -14.9480  -26.0620   -6.9770 C   0  0  0  0  0  0  0  0  0  0  0  0
  -16.2820  -25.8270   -6.5620 C   0  0  0  0  0  0  0  0  0  0  0  0
  -17.2670  -24.9090   -6.9350 C   0  0  0  0  0  0  0  0  0  0  0  0
  -18.5200  -24.9470   -6.3260 C   0  0  0  0  0  0  0  0  0  0  0  0
  -18.8000  -25.8690   -5.3410 C   0  0  0  0  0  0  0  0  0  0  0  0
  -17.8310  -26.7770   -4.9400 C   0  0  0  0  0  0  0  0  0  0  0  0
  -16.5800  -26.7380   -5.5690 C   0  0  0  0  0  0  0  0  0  0  0  0
  -15.4610  -27.5010   -5.3400 N   0  0  0  0  0  0  0  0  0  0  0  0
  -15.3810  -28.2310   -4.6530 H   0  0  0  0  0  0  0  0  0  0  0  0
  -14.4690  -27.0920   -6.1960 C   0  0  0  0  0  0  0  0  0  0  0  0
  -14.3960  -26.3760  -10.3440 C   0  0  0  0  0  0  0  0  0  0  0  0
  -15.5060  -25.4990  -10.1680 O   0  0  0  0  0  0  0  0  0  0  0  0
  -16.6420  -25.7080  -10.8700 C   0  0  0  0  0  0  0  0  0  0  0  0
  -17.8920  -25.9240  -10.3200 C   0  0  0  0  0  0  0  0  0  0  0  0
  -19.0040  -26.0790  -11.1570 C   0  0  0  0  0  0  0  0  0  0  0  0
  -18.7890  -26.0220  -12.5190 C   0  0  0  0  0  0  0  0  0  0  0  0
  -17.5720  -25.8320  -13.0650 N   0  0  0  0  0  0  0  0  0  0  0  0
  -16.5170  -25.6790  -12.2440 C   0  0  0  0  0  0  0  0  0  0  0  0
  -20.3040  -26.2840  -10.5410 C   0  0  0  0  0  0  0  0  0  0  0  0
  -20.5990  -26.0430   -9.2480 C   0  0  0  0  0  0  0  0  0  0  0  0
  -21.9100  -26.2490   -8.6280 C   0  0  0  0  0  0  0  0  0  0  0  0
  -22.0930  -25.8480   -7.3040 C   0  0  0  0  0  0  0  0  0  0  0  0
  -23.3240  -26.0330   -6.7020 C   0  0  0  0  0  0  0  0  0  0  0  0
  -24.3730  -26.5910   -7.3380 N   0  0  0  0  0  0  0  0  0  0  0  0
  -24.1880  -26.9760   -8.6170 C   0  0  0  0  0  0  0  0  0  0  0  0
  -22.9890  -26.8210   -9.2820 C   0  0  0  0  0  0  0  0  0  0  0  0
  1 17  1  6  0  0  0
  1  6  1  0  0  0  0
  2  1  1  0  0  0  0
  2  3  1  0  0  0  0
  4  2  1  0  0  0  0
  5  2  1  0  0  0  0
  6  7  1  0  0  0  0
  7  8  1  0  0  0  0
  7 16  2  0  0  0  0
  8 13  1  0  0  0  0
  9  8  2  0  0  0  0
  9 10  1  0  0  0  0
 10 11  2  0  0  0  0
 11 12  1  0  0  0  0
 13 14  1  0  0  0  0
 13 12  2  0  0  0  0
 14 15  1  0  0  0  0
 16 14  1  0  0  0  0
 17 18  1  0  0  0  0
 19 20  1  0  0  0  0
 19 18  1  0  0  0  0
 21 25  1  0  0  0  0
 21 20  2  0  0  0  0
 22 21  1  0  0  0  0
 23 22  2  0  0  0  0
 23 24  1  0  0  0  0
 24 19  2  0  0  0  0
 25 26  2  0  0  0  0
 26 27  1  0  0  0  0
 27 28  1  0  0  0  0
 28 29  2  0  0  0  0
 30 29  1  0  0  0  0
 31 30  2  0  0  0  0
 32 27  2  0  0  0  0
 32 31  1  0  0  0  0
M  END
>  <minimizedAffinity>
-8.19983864

$$$$

 OpenBabel12271914493D

 32 35  0  0  1  0  0  0  0  0999 V2000
  -25.7350  -25.0330   -5.0080 C   0  0  1  0  0  0  0  0  0  0  0  0
  -27.1190  -25.3870   -5.4630 N   0  0  0  0  0  0  0  0  0  0  0  0
  -27.8260  -24.8580   -4.9390 H   0  0  0  0  0  0  0  0  0  0  0  0
  -27.2410  -25.1480   -6.4520 H   0  0  0  0  0  0  0  0  0  0  0  0
  -27.2890  -26.3990   -5.3820 H   0  0  0  0  0  0  0  0  0  0  0  0
  -25.5670  -25.1720   -3.4790 C   0  0  0  0  0  0  0  0  0  0  0  0
  -26.0230  -23.9810   -2.7100 C   0  0  0  0  0  0  0  0  0  0  0  0
  -27.2650  -23.8230   -2.0470 C   0  0  0  0  0  0  0  0  0  0  0  0
  -28.3950  -24.6300   -1.8970 C   0  0  0  0  0  0  0  0  0  0  0  0
  -29.4810  -24.1750   -1.1530 C   0  0  0  0  0  0  0  0  0  0  0  0
  -29.4670  -22.9250   -0.5730 C   0  0  0  0  0  0  0  0  0  0  0  0
  -28.3640  -22.0980   -0.7260 C   0  0  0  0  0  0  0  0  0  0  0  0
  -27.2730  -22.5710   -1.4650 C   0  0  0  0  0  0  0  0  0  0  0  0
  -26.0900  -21.9480   -1.7780 N   0  0  0  0  0  0  0  0  0  0  0  0
  -25.8310  -21.0140   -1.5050 H   0  0  0  0  0  0  0  0  0  0  0  0
  -25.3290  -22.8030   -2.5330 C   0  0  0  0  0  0  0  0  0  0  0  0
  -24.7230  -25.8750   -5.7860 C   0  0  0  0  0  0  0  0  0  0  0  0
  -23.7120  -24.9710   -6.2260 O   0  0  0  0  0  0  0  0  0  0  0  0
  -22.8280  -25.3630   -7.1700 C   0  0  0  0  0  0  0  0  0  0  0  0
  -21.5050  -25.6900   -6.9370 C   0  0  0  0  0  0  0  0  0  0  0  0
  -20.7000  -26.1320   -7.9950 C   0  0  0  0  0  0  0  0  0  0  0  0
  -21.2770  -26.2030   -9.2460 C   0  0  0  0  0  0  0  0  0  0  0  0
  -22.5590  -25.8670   -9.4870 N   0  0  0  0  0  0  0  0  0  0  0  0
  -23.3180  -25.4520   -8.4560 C   0  0  0  0  0  0  0  0  0  0  0  0
  -19.3210  -26.4860   -7.7070 C   0  0  0  0  0  0  0  0  0  0  0  0
  -18.4040  -25.6620   -7.1620 C   0  0  0  0  0  0  0  0  0  0  0  0
  -17.0130  -26.0190   -6.8700 C   0  0  0  0  0  0  0  0  0  0  0  0
  -16.0030  -25.4650   -7.6570 C   0  0  0  0  0  0  0  0  0  0  0  0
  -14.6840  -25.7890   -7.3960 C   0  0  0  0  0  0  0  0  0  0  0  0
  -14.3190  -26.6270   -6.4050 N   0  0  0  0  0  0  0  0  0  0  0  0
  -15.3010  -27.1580   -5.6500 C   0  0  0  0  0  0  0  0  0  0  0  0
  -16.6380  -26.8780   -5.8510 C   0  0  0  0  0  0  0  0  0  0  0  0
  1 17  1  6  0  0  0
  1  6  1  0  0  0  0
  2  5  1  0  0  0  0
  2  1  1  0  0  0  0
  2  3  1  0  0  0  0
  4  2  1  0  0  0  0
  6  7  1  0  0  0  0
  7 16  2  0  0  0  0
  7  8  1  0  0  0  0
  8  9  2  0  0  0  0
  8 13  1  0  0  0  0
  9 10  1  0  0  0  0
 10 11  2  0  0  0  0
 12 11  1  0  0  0  0
 13 12  2  0  0  0  0
 14 15  1  0  0  0  0
 14 13  1  0  0  0  0
 16 14  1  0  0  0  0
 18 17  1  0  0  0  0
 19 20  1  0  0  0  0
 19 18  1  0  0  0  0
 21 25  1  0  0  0  0
 21 20  2  0  0  0  0
 22 21  1  0  0  0  0
 23 22  2  0  0  0  0
 23 24  1  0  0  0  0
 24 19  2  0  0  0  0
 25 26  2  0  0  0  0
 26 27  1  0  0  0  0
 27 32  2  0  0  0  0
 28 29  2  0  0  0  0
 28 27  1  0  0  0  0
 29 30  1  0  0  0  0
 30 31  2  0  0  0  0
 32 31  1  0  0  0  0
M  END
>  <minimizedAffinity>
-8.07721233

$$$$

 OpenBabel12271914493D

 32 35  0  0  1  0  0  0  0  0999 V2000
  -25.7630  -24.6510   -5.5310 C   0  0  1  0  0  0  0  0  0  0  0  0
  -26.3090  -23.9060   -6.7120 N   0  0  0  0  0  0  0  0  0  0  0  0
  -26.9740  -23.1820   -6.4150 H   0  0  0  0  0  0  0  0  0  0  0  0
  -25.5540  -23.4300   -7.2130 H   0  0  0  0  0  0  0  0  0  0  0  0
  -26.7490  -24.5490   -7.3860 H   0  0  0  0  0  0  0  0  0  0  0  0
  -26.8810  -25.2080   -4.6220 C   0  0  0  0  0  0  0  0  0  0  0  0
  -26.5480  -25.1800   -3.1710 C   0  0  0  0  0  0  0  0  0  0  0  0
  -25.9840  -24.0980   -2.4500 C   0  0  0  0  0  0  0  0  0  0  0  0
  -25.5700  -22.8100   -2.7990 C   0  0  0  0  0  0  0  0  0  0  0  0
  -25.0520  -21.9580   -1.8260 C   0  0  0  0  0  0  0  0  0  0  0  0
  -24.9230  -22.3740   -0.5190 C   0  0  0  0  0  0  0  0  0  0  0  0
  -25.3090  -23.6550   -0.1530 C   0  0  0  0  0  0  0  0  0  0  0  0
  -25.8400  -24.4980   -1.1370 C   0  0  0  0  0  0  0  0  0  0  0  0
  -26.2680  -25.7990   -1.0380 N   0  0  0  0  0  0  0  0  0  0  0  0
  -26.2560  -26.3570   -0.2010 H   0  0  0  0  0  0  0  0  0  0  0  0
  -26.6990  -26.2150   -2.2720 C   0  0  0  0  0  0  0  0  0  0  0  0
  -24.8150  -25.7440   -6.0260 C   0  0  0  0  0  0  0  0  0  0  0  0
  -23.5330  -25.1300   -6.1450 O   0  0  0  0  0  0  0  0  0  0  0  0
  -22.7210  -25.4690   -7.1710 C   0  0  0  0  0  0  0  0  0  0  0  0
  -21.3610  -25.6940   -7.0710 C   0  0  0  0  0  0  0  0  0  0  0  0
  -20.6350  -26.0900   -8.2020 C   0  0  0  0  0  0  0  0  0  0  0  0
  -21.3270  -26.2220   -9.3880 C   0  0  0  0  0  0  0  0  0  0  0  0
  -22.6490  -25.9840   -9.5010 N   0  0  0  0  0  0  0  0  0  0  0  0
  -23.3290  -25.6120   -8.4010 C   0  0  0  0  0  0  0  0  0  0  0  0
  -19.2110  -26.3370   -8.0530 C   0  0  0  0  0  0  0  0  0  0  0  0
  -18.4340  -25.8370   -7.0720 C   0  0  0  0  0  0  0  0  0  0  0  0
  -16.9980  -26.0870   -6.9200 C   0  0  0  0  0  0  0  0  0  0  0  0
  -16.5630  -26.8460   -5.8330 C   0  0  0  0  0  0  0  0  0  0  0  0
  -15.2120  -27.0930   -5.6740 C   0  0  0  0  0  0  0  0  0  0  0  0
  -14.2780  -26.6310   -6.5290 N   0  0  0  0  0  0  0  0  0  0  0  0
  -14.7070  -25.8980   -7.5770 C   0  0  0  0  0  0  0  0  0  0  0  0
  -16.0390  -25.6130   -7.7990 C   0  0  0  0  0  0  0  0  0  0  0  0
  1 17  1  6  0  0  0
  1  6  1  0  0  0  0
  2  3  1  0  0  0  0
  2  1  1  0  0  0  0
  4  2  1  0  0  0  0
  5  2  1  0  0  0  0
  6  7  1  0  0  0  0
  7  8  1  0  0  0  0
  7 16  2  0  0  0  0
  8 13  1  0  0  0  0
  9  8  2  0  0  0  0
  9 10  1  0  0  0  0
 10 11  2  0  0  0  0
 11 12  1  0  0  0  0
 13 14  1  0  0  0  0
 13 12  2  0  0  0  0
 14 15  1  0  0  0  0
 16 14  1  0  0  0  0
 18 17  1  0  0  0  0
 19 20  1  0  0  0  0
 19 18  1  0  0  0  0
 21 25  1  0  0  0  0
 21 20  2  0  0  0  0
 22 21  1  0  0  0  0
 23 22  2  0  0  0  0
 23 24  1  0  0  0  0
 24 19  2  0  0  0  0
 25 26  2  0  0  0  0
 26 27  1  0  0  0  0
 27 28  2  0  0  0  0
 28 29  1  0  0  0  0
 30 29  2  0  0  0  0
 31 30  1  0  0  0  0
 32 31  2  0  0  0  0
 32 27  1  0  0  0  0
M  END
>  <minimizedAffinity>
-8.04298973

$$$$

 OpenBabel12271914493D

 32 35  0  0  1  0  0  0  0  0999 V2000
  -19.0510  -25.7850   -6.1410 C   0  0  1  0  0  0  0  0  0  0  0  0
  -19.3510  -26.4520   -4.8320 N   0  0  0  0  0  0  0  0  0  0  0  0
  -19.2680  -25.7880   -4.0530 H   0  0  0  0  0  0  0  0  0  0  0  0
  -20.3130  -26.8040   -4.8230 H   0  0  0  0  0  0  0  0  0  0  0  0
  -18.7390  -27.2660   -4.6820 H   0  0  0  0  0  0  0  0  0  0  0  0
  -17.6920  -25.0520   -6.1280 C   0  0  0  0  0  0  0  0  0  0  0  0
  -16.5230  -25.9420   -6.3700 C   0  0  0  0  0  0  0  0  0  0  0  0
  -15.7280  -26.0000   -7.5410 C   0  0  0  0  0  0  0  0  0  0  0  0
  -15.7510  -25.3270   -8.7640 C   0  0  0  0  0  0  0  0  0  0  0  0
  -14.7940  -25.6130   -9.7350 C   0  0  0  0  0  0  0  0  0  0  0  0
  -13.8290  -26.5710   -9.5150 C   0  0  0  0  0  0  0  0  0  0  0  0
  -13.7980  -27.2670   -8.3150 C   0  0  0  0  0  0  0  0  0  0  0  0
  -14.7570  -26.9610   -7.3420 C   0  0  0  0  0  0  0  0  0  0  0  0
  -14.9530  -27.5150   -6.1010 N   0  0  0  0  0  0  0  0  0  0  0  0
  -14.4060  -28.2570   -5.6980 H   0  0  0  0  0  0  0  0  0  0  0  0
  -16.0250  -26.8970   -5.5080 C   0  0  0  0  0  0  0  0  0  0  0  0
  -19.1450  -26.8220   -7.2620 C   0  0  0  0  0  0  0  0  0  0  0  0
  -20.3430  -26.5240   -7.9760 O   0  0  0  0  0  0  0  0  0  0  0  0
  -20.2750  -26.1750   -9.2800 C   0  0  0  0  0  0  0  0  0  0  0  0
  -19.1290  -26.1920  -10.0520 C   0  0  0  0  0  0  0  0  0  0  0  0
  -19.1980  -25.8550  -11.4100 C   0  0  0  0  0  0  0  0  0  0  0  0
  -20.4310  -25.4990  -11.9150 C   0  0  0  0  0  0  0  0  0  0  0  0
  -21.5500  -25.4590  -11.1660 N   0  0  0  0  0  0  0  0  0  0  0  0
  -21.4640  -25.7940   -9.8660 C   0  0  0  0  0  0  0  0  0  0  0  0
  -17.9750  -25.9040  -12.1930 C   0  0  0  0  0  0  0  0  0  0  0  0
  -17.1710  -26.9790  -12.3140 C   0  0  0  0  0  0  0  0  0  0  0  0
  -15.9390  -27.0290  -13.1050 C   0  0  0  0  0  0  0  0  0  0  0  0
  -15.5430  -28.2510  -13.6490 C   0  0  0  0  0  0  0  0  0  0  0  0
  -14.3840  -28.3180  -14.3990 C   0  0  0  0  0  0  0  0  0  0  0  0
  -13.6030  -27.2450  -14.6360 N   0  0  0  0  0  0  0  0  0  0  0  0
  -13.9920  -26.0680  -14.1070 C   0  0  0  0  0  0  0  0  0  0  0  0
  -15.1370  -25.9260  -13.3490 C   0  0  0  0  0  0  0  0  0  0  0  0
  1 17  1  6  0  0  0
  1  6  1  0  0  0  0
  1  2  1  0  0  0  0
  2  4  1  0  0  0  0
  2  5  1  0  0  0  0
  2  3  1  0  0  0  0
  7  6  1  0  0  0  0
  7 16  2  0  0  0  0
  8 13  1  0  0  0  0
  8  7  1  0  0  0  0
  9  8  2  0  0  0  0
 10 11  2  0  0  0  0
 10  9  1  0  0  0  0
 11 12  1  0  0  0  0
 12 13  2  0  0  0  0
 13 14  1  0  0  0  0
 14 15  1  0  0  0  0
 14 16  1  0  0  0  0
 18 17  1  0  0  0  0
 19 18  1  0  0  0  0
 20 19  2  0  0  0  0
 21 20  1  0  0  0  0
 22 21  2  0  0  0  0
 22 23  1  0  0  0  0
 23 24  2  0  0  0  0
 24 19  1  0  0  0  0
 25 21  1  0  0  0  0
 26 25  2  0  0  0  0
 27 26  1  0  0  0  0
 28 27  2  0  0  0  0
 29 28  1  0  0  0  0
 30 29  2  0  0  0  0
 30 31  1  0  0  0  0
 31 32  2  0  0  0  0
 32 27  1  0  0  0  0
M  END
>  <minimizedAffinity>
-7.91857147

$$$$

 OpenBabel12271914493D

 32 35  0  0  1  0  0  0  0  0999 V2000
  -20.6760  -26.0060   -7.1650 C   0  0  1  0  0  0  0  0  0  0  0  0
  -20.4100  -26.8250   -8.3930 N   0  0  0  0  0  0  0  0  0  0  0  0
  -19.5190  -27.3300   -8.3130 H   0  0  0  0  0  0  0  0  0  0  0  0
  -21.1430  -27.5300   -8.5160 H   0  0  0  0  0  0  0  0  0  0  0  0
  -20.4210  -26.2390   -9.2390 H   0  0  0  0  0  0  0  0  0  0  0  0
  -19.4940  -25.0750   -6.8150 C   0  0  0  0  0  0  0  0  0  0  0  0
  -18.3520  -25.7690   -6.1580 C   0  0  0  0  0  0  0  0  0  0  0  0
  -17.0290  -25.8800   -6.6520 C   0  0  0  0  0  0  0  0  0  0  0  0
  -16.3850  -25.4380   -7.8100 C   0  0  0  0  0  0  0  0  0  0  0  0
  -15.0320  -25.7080   -8.0000 C   0  0  0  0  0  0  0  0  0  0  0  0
  -14.3160  -26.4250   -7.0660 C   0  0  0  0  0  0  0  0  0  0  0  0
  -14.9390  -26.8920   -5.9180 C   0  0  0  0  0  0  0  0  0  0  0  0
  -16.2970  -26.6030   -5.7320 C   0  0  0  0  0  0  0  0  0  0  0  0
  -17.1380  -26.9650   -4.7080 N   0  0  0  0  0  0  0  0  0  0  0  0
  -16.8810  -27.5190   -3.9080 H   0  0  0  0  0  0  0  0  0  0  0  0
  -18.3860  -26.4590   -4.9650 C   0  0  0  0  0  0  0  0  0  0  0  0
  -21.9870  -25.2420   -7.3500 C   0  0  0  0  0  0  0  0  0  0  0  0
  -23.0060  -26.2320   -7.4760 O   0  0  0  0  0  0  0  0  0  0  0  0
  -24.2660  -25.9500   -7.0760 C   0  0  0  0  0  0  0  0  0  0  0  0
  -24.6130  -25.4220   -5.8460 C   0  0  0  0  0  0  0  0  0  0  0  0
  -25.9530  -25.1270   -5.5670 C   0  0  0  0  0  0  0  0  0  0  0  0
  -26.8830  -25.4010   -6.5500 C   0  0  0  0  0  0  0  0  0  0  0  0
  -26.5580  -25.9350   -7.7430 N   0  0  0  0  0  0  0  0  0  0  0  0
  -25.2630  -26.2040   -7.9940 C   0  0  0  0  0  0  0  0  0  0  0  0
  -26.2760  -24.5530   -4.2720 C   0  0  0  0  0  0  0  0  0  0  0  0
  -25.5570  -23.6030   -3.6410 C   0  0  0  0  0  0  0  0  0  0  0  0
  -25.8830  -23.0240   -2.3350 C   0  0  0  0  0  0  0  0  0  0  0  0
  -26.9620  -23.5470   -1.6230 C   0  0  0  0  0  0  0  0  0  0  0  0
  -27.2850  -23.0130   -0.3890 C   0  0  0  0  0  0  0  0  0  0  0  0
  -26.5980  -21.9980    0.1720 N   0  0  0  0  0  0  0  0  0  0  0  0
  -25.5550  -21.4980   -0.5230 C   0  0  0  0  0  0  0  0  0  0  0  0
  -25.1760  -21.9810   -1.7590 C   0  0  0  0  0  0  0  0  0  0  0  0
  1 17  1  6  0  0  0
  1  6  1  0  0  0  0
  2  3  1  0  0  0  0
  2  1  1  0  0  0  0
  4  2  1  0  0  0  0
  5  2  1  0  0  0  0
  6  7  1  0  0  0  0
  7 16  2  0  0  0  0
  8  7  1  0  0  0  0
  8 13  2  0  0  0  0
  9  8  1  0  0  0  0
 10  9  2  0  0  0  0
 10 11  1  0  0  0  0
 11 12  2  0  0  0  0
 12 13  1  0  0  0  0
 13 14  1  0  0  0  0
 14 15  1  0  0  0  0
 16 14  1  0  0  0  0
 18 17  1  0  0  0  0
 18 19  1  0  0  0  0
 19 20  2  0  0  0  0
 20 21  1  0  0  0  0
 21 25  1  0  0  0  0
 22 21  2  0  0  0  0
 23 22  1  0  0  0  0
 24 23  2  0  0  0  0
 24 19  1  0  0  0  0
 25 26  2  0  0  0  0
 26 27  1  0  0  0  0
 27 32  2  0  0  0  0
 27 28  1  0  0  0  0
 28 29  2  0  0  0  0
 29 30  1  0  0  0  0
 31 30  2  0  0  0  0
 32 31  1  0  0  0  0
M  END
>  <minimizedAffinity>
-7.8684454

$$$$

 OpenBabel12271914493D

 32 35  0  0  1  0  0  0  0  0999 V2000
  -13.8250  -25.6070   -9.7300 C   0  0  1  0  0  0  0  0  0  0  0  0
  -12.5480  -26.0370   -9.0730 N   0  0  0  0  0  0  0  0  0  0  0  0
  -11.9210  -26.4900   -9.7480 H   0  0  0  0  0  0  0  0  0  0  0  0
  -12.0480  -25.2240   -8.7000 H   0  0  0  0  0  0  0  0  0  0  0  0
  -12.7330  -26.6600   -8.2740 H   0  0  0  0  0  0  0  0  0  0  0  0
  -14.5090  -26.7620  -10.4940 C   0  0  0  0  0  0  0  0  0  0  0  0
  -15.9110  -26.4690  -10.9020 C   0  0  0  0  0  0  0  0  0  0  0  0
  -17.0720  -27.1880  -10.5250 C   0  0  0  0  0  0  0  0  0  0  0  0
  -17.3020  -28.3140   -9.7310 C   0  0  0  0  0  0  0  0  0  0  0  0
  -18.6010  -28.7790   -9.5420 C   0  0  0  0  0  0  0  0  0  0  0  0
  -19.6700  -28.1540  -10.1460 C   0  0  0  0  0  0  0  0  0  0  0  0
  -19.4650  -27.0460  -10.9560 C   0  0  0  0  0  0  0  0  0  0  0  0
  -18.1550  -26.5800  -11.1270 C   0  0  0  0  0  0  0  0  0  0  0  0
  -17.6900  -25.5330  -11.8850 N   0  0  0  0  0  0  0  0  0  0  0  0
  -18.2560  -24.9260  -12.4530 H   0  0  0  0  0  0  0  0  0  0  0  0
  -16.3270  -25.4640  -11.7490 C   0  0  0  0  0  0  0  0  0  0  0  0
  -14.7410  -24.9790   -8.6780 C   0  0  0  0  0  0  0  0  0  0  0  0
  -14.5840  -25.7660   -7.4990 O   0  0  0  0  0  0  0  0  0  0  0  0
  -15.6650  -26.0600   -6.7420 C   0  0  0  0  0  0  0  0  0  0  0  0
  -16.9520  -25.6170   -6.9840 C   0  0  0  0  0  0  0  0  0  0  0  0
  -17.9990  -26.0330   -6.1520 C   0  0  0  0  0  0  0  0  0  0  0  0
  -17.6830  -26.8680   -5.1000 C   0  0  0  0  0  0  0  0  0  0  0  0
  -16.4290  -27.2880   -4.8440 N   0  0  0  0  0  0  0  0  0  0  0  0
  -15.4380  -26.8830   -5.6590 C   0  0  0  0  0  0  0  0  0  0  0  0
  -19.3420  -25.5630   -6.4500 C   0  0  0  0  0  0  0  0  0  0  0  0
  -20.1970  -26.1480   -7.3110 C   0  0  0  0  0  0  0  0  0  0  0  0
  -21.5520  -25.6750   -7.6110 C   0  0  0  0  0  0  0  0  0  0  0  0
  -21.7780  -25.0210   -8.8220 C   0  0  0  0  0  0  0  0  0  0  0  0
  -23.0490  -24.5680   -9.1220 C   0  0  0  0  0  0  0  0  0  0  0  0
  -24.0990  -24.7290   -8.2920 N   0  0  0  0  0  0  0  0  0  0  0  0
  -23.8720  -25.3630   -7.1240 C   0  0  0  0  0  0  0  0  0  0  0  0
  -22.6300  -25.8420   -6.7580 C   0  0  0  0  0  0  0  0  0  0  0  0
  1  6  1  1  0  0  0
  1  2  1  0  0  0  0
  1 17  1  0  0  0  0
  2  4  1  0  0  0  0
  2  5  1  0  0  0  0
  3  2  1  0  0  0  0
  7  8  1  0  0  0  0
  7  6  1  0  0  0  0
  8  9  2  0  0  0  0
  9 10  1  0  0  0  0
 11 10  2  0  0  0  0
 12 11  1  0  0  0  0
 13 12  2  0  0  0  0
 13  8  1  0  0  0  0
 14 16  1  0  0  0  0
 14 13  1  0  0  0  0
 15 14  1  0  0  0  0
 16  7  2  0  0  0  0
 17 18  1  0  0  0  0
 18 19  1  0  0  0  0
 19 24  1  0  0  0  0
 20 19  2  0  0  0  0
 20 21  1  0  0  0  0
 21 22  2  0  0  0  0
 22 23  1  0  0  0  0
 24 23  2  0  0  0  0
 25 21  1  0  0  0  0
 26 25  2  0  0  0  0
 27 26  1  0  0  0  0
 27 32  2  0  0  0  0
 28 27  1  0  0  0  0
 29 28  2  0  0  0  0
 29 30  1  0  0  0  0
 30 31  2  0  0  0  0
 31 32  1  0  0  0  0
M  END
>  <minimizedAffinity>
-7.84911108

$$$$

 OpenBabel12271914493D

 32 35  0  0  1  0  0  0  0  0999 V2000
  -16.3930  -27.4550  -14.6870 C   0  0  1  0  0  0  0  0  0  0  0  0
  -16.3630  -27.6910  -16.1670 N   0  0  0  0  0  0  0  0  0  0  0  0
  -17.2260  -27.3570  -16.6110 H   0  0  0  0  0  0  0  0  0  0  0  0
  -15.5880  -27.1760  -16.5950 H   0  0  0  0  0  0  0  0  0  0  0  0
  -16.2060  -28.6860  -16.3810 H   0  0  0  0  0  0  0  0  0  0  0  0
  -17.6630  -28.0340  -14.0260 C   0  0  0  0  0  0  0  0  0  0  0  0
  -18.1300  -27.2650  -12.8400 C   0  0  0  0  0  0  0  0  0  0  0  0
  -18.0780  -27.6790  -11.4860 C   0  0  0  0  0  0  0  0  0  0  0  0
  -17.6290  -28.8330  -10.8400 C   0  0  0  0  0  0  0  0  0  0  0  0
  -17.7080  -28.9300   -9.4520 C   0  0  0  0  0  0  0  0  0  0  0  0
  -18.2420  -27.9060   -8.7020 C   0  0  0  0  0  0  0  0  0  0  0  0
  -18.7130  -26.7580   -9.3220 C   0  0  0  0  0  0  0  0  0  0  0  0
  -18.6170  -26.6670  -10.7170 C   0  0  0  0  0  0  0  0  0  0  0  0
  -19.0260  -25.6620  -11.5590 N   0  0  0  0  0  0  0  0  0  0  0  0
  -19.4760  -24.8080  -11.2760 H   0  0  0  0  0  0  0  0  0  0  0  0
  -18.7300  -26.0240  -12.8490 C   0  0  0  0  0  0  0  0  0  0  0  0
  -15.1080  -28.0070  -14.0670 C   0  0  0  0  0  0  0  0  0  0  0  0
  -14.2250  -26.8960  -13.9340 O   0  0  0  0  0  0  0  0  0  0  0  0
  -13.8830  -26.4570  -12.7020 C   0  0  0  0  0  0  0  0  0  0  0  0
  -14.4760  -26.8580  -11.5190 C   0  0  0  0  0  0  0  0  0  0  0  0
  -13.9970  -26.3670  -10.2980 C   0  0  0  0  0  0  0  0  0  0  0  0
  -12.9460  -25.4740  -10.3390 C   0  0  0  0  0  0  0  0  0  0  0  0
  -12.3750  -25.0610  -11.4870 N   0  0  0  0  0  0  0  0  0  0  0  0
  -12.8450  -25.5510  -12.6500 C   0  0  0  0  0  0  0  0  0  0  0  0
  -14.6330  -26.8270   -9.0750 C   0  0  0  0  0  0  0  0  0  0  0  0
  -14.7360  -26.1140   -7.9360 C   0  0  0  0  0  0  0  0  0  0  0  0
  -15.3780  -26.5770   -6.7030 C   0  0  0  0  0  0  0  0  0  0  0  0
  -14.7080  -27.5090   -5.9110 C   0  0  0  0  0  0  0  0  0  0  0  0
  -15.2980  -27.9580   -4.7440 C   0  0  0  0  0  0  0  0  0  0  0  0
  -16.5070  -27.5330   -4.3240 N   0  0  0  0  0  0  0  0  0  0  0  0
  -17.1480  -26.6320   -5.0960 C   0  0  0  0  0  0  0  0  0  0  0  0
  -16.6200  -26.1400   -6.2730 C   0  0  0  0  0  0  0  0  0  0  0  0
  1 17  1  1  0  0  0
  1  6  1  0  0  0  0
  2  1  1  0  0  0  0
  3  2  1  0  0  0  0
  4  2  1  0  0  0  0
  5  2  1  0  0  0  0
  6  7  1  0  0  0  0
  7  8  1  0  0  0  0
  8  9  2  0  0  0  0
  8 13  1  0  0  0  0
  9 10  1  0  0  0  0
 10 11  2  0  0  0  0
 12 11  1  0  0  0  0
 13 12  2  0  0  0  0
 14 15  1  0  0  0  0
 14 13  1  0  0  0  0
 16  7  2  0  0  0  0
 16 14  1  0  0  0  0
 17 18  1  0  0  0  0
 18 19  1  0  0  0  0
 19 24  2  0  0  0  0
 19 20  1  0  0  0  0
 20 21  2  0  0  0  0
 21 25  1  0  0  0  0
 22 21  1  0  0  0  0
 23 22  2  0  0  0  0
 24 23  1  0  0  0  0
 25 26  2  0  0  0  0
 26 27  1  0  0  0  0
 27 32  2  0  0  0  0
 27 28  1  0  0  0  0
 28 29  2  0  0  0  0
 29 30  1  0  0  0  0
 31 30  2  0  0  0  0
 32 31  1  0  0  0  0
M  END
>  <minimizedAffinity>
-7.776196

$$$$

 OpenBabel12271914493D

 32 35  0  0  1  0  0  0  0  0999 V2000
  -17.9430  -26.3700   -8.6770 C   0  0  1  0  0  0  0  0  0  0  0  0
  -17.7580  -27.8430   -8.4700 N   0  0  0  0  0  0  0  0  0  0  0  0
  -18.0380  -28.1200   -7.5210 H   0  0  0  0  0  0  0  0  0  0  0  0
  -18.3460  -28.3710   -9.1210 H   0  0  0  0  0  0  0  0  0  0  0  0
  -16.7850  -28.1250   -8.6570 H   0  0  0  0  0  0  0  0  0  0  0  0
  -17.2450  -25.5320   -7.5830 C   0  0  0  0  0  0  0  0  0  0  0  0
  -17.4300  -26.0640   -6.2050 C   0  0  0  0  0  0  0  0  0  0  0  0
  -16.5210  -26.8710   -5.4780 C   0  0  0  0  0  0  0  0  0  0  0  0
  -15.2640  -27.4120   -5.7590 C   0  0  0  0  0  0  0  0  0  0  0  0
  -14.6050  -28.1770   -4.7990 C   0  0  0  0  0  0  0  0  0  0  0  0
  -15.1850  -28.4260   -3.5740 C   0  0  0  0  0  0  0  0  0  0  0  0
  -16.4410  -27.9160   -3.2800 C   0  0  0  0  0  0  0  0  0  0  0  0
  -17.0880  -27.1380   -4.2480 C   0  0  0  0  0  0  0  0  0  0  0  0
  -18.3270  -26.5480   -4.2120 N   0  0  0  0  0  0  0  0  0  0  0  0
  -18.9770  -26.5960   -3.4450 H   0  0  0  0  0  0  0  0  0  0  0  0
  -18.5370  -25.8940   -5.4000 C   0  0  0  0  0  0  0  0  0  0  0  0
  -17.4720  -26.0010  -10.0850 C   0  0  0  0  0  0  0  0  0  0  0  0
  -16.4470  -26.9370  -10.4150 O   0  0  0  0  0  0  0  0  0  0  0  0
  -15.2420  -26.4890  -10.8330 C   0  0  0  0  0  0  0  0  0  0  0  0
  -14.8510  -26.3690  -12.1540 C   0  0  0  0  0  0  0  0  0  0  0  0
  -13.5890  -25.8430  -12.4610 C   0  0  0  0  0  0  0  0  0  0  0  0
  -12.7770  -25.4810  -11.4060 C   0  0  0  0  0  0  0  0  0  0  0  0
  -13.1410  -25.6140  -10.1160 N   0  0  0  0  0  0  0  0  0  0  0  0
  -14.3600  -26.1140   -9.8420 C   0  0  0  0  0  0  0  0  0  0  0  0
  -13.2210  -25.7130  -13.8600 C   0  0  0  0  0  0  0  0  0  0  0  0
  -12.4840  -24.7120  -14.3810 C   0  0  0  0  0  0  0  0  0  0  0  0
  -12.1110  -24.5820  -15.7920 C   0  0  0  0  0  0  0  0  0  0  0  0
  -10.8020  -24.2170  -16.1060 C   0  0  0  0  0  0  0  0  0  0  0  0
  -10.4310  -24.0890  -17.4320 C   0  0  0  0  0  0  0  0  0  0  0  0
  -11.2840  -24.3040  -18.4540 N   0  0  0  0  0  0  0  0  0  0  0  0
  -12.5480  -24.6560  -18.1420 C   0  0  0  0  0  0  0  0  0  0  0  0
  -12.9870  -24.8030  -16.8410 C   0  0  0  0  0  0  0  0  0  0  0  0
  1 17  1  6  0  0  0
  1  2  1  0  0  0  0
  1  6  1  0  0  0  0
  2  3  1  0  0  0  0
  4  2  1  0  0  0  0
  5  2  1  0  0  0  0
  6  7  1  0  0  0  0
  7  8  1  0  0  0  0
  7 16  2  0  0  0  0
  8 13  1  0  0  0  0
  9  8  2  0  0  0  0
  9 10  1  0  0  0  0
 10 11  2  0  0  0  0
 11 12  1  0  0  0  0
 13 14  1  0  0  0  0
 13 12  2  0  0  0  0
 14 15  1  0  0  0  0
 16 14  1  0  0  0  0
 18 17  1  0  0  0  0
 19 18  1  0  0  0  0
 19 24  2  0  0  0  0
 20 19  1  0  0  0  0
 21 20  2  0  0  0  0
 21 22  1  0  0  0  0
 22 23  2  0  0  0  0
 23 24  1  0  0  0  0
 25 21  1  0  0  0  0
 26 25  2  0  0  0  0
 27 26  1  0  0  0  0
 28 27  1  0  0  0  0
 29 28  2  0  0  0  0
 30 31  2  0  0  0  0
 30 29  1  0  0  0  0
 31 32  1  0  0  0  0
 32 27  2  0  0  0  0
M  END
>  <minimizedAffinity>
-7.55061007

$$$$
