
 OpenBabel12271914443D

 30 33  0  0  1  0  0  0  0  0999 V2000
  -16.3620  -25.3150   -8.8240 C   0  0  1  0  0  0  0  0  0  0  0  0
  -15.0150  -24.9620   -9.0680 N   0  0  0  0  0  0  0  0  0  0  0  0
  -14.3930  -25.7830   -8.9390 H   0  0  0  0  0  0  0  0  0  0  0  0
  -14.9880  -24.8030  -10.5170 O   0  0  0  0  0  0  0  0  0  0  0  0
  -15.8390  -25.7990  -11.0640 C   0  0  2  0  0  0  0  0  0  0  0  0
  -14.8810  -26.8300  -11.6890 C   0  0  1  0  0  0  0  0  0  0  0  0
  -14.3940  -26.2980  -13.0050 C   0  0  2  0  0  0  0  0  0  0  0  0
  -15.6040  -26.2530  -13.9540 C   0  0  1  0  0  0  0  0  0  0  0  0
  -16.8660  -25.5930  -13.3160 C   0  0  2  0  0  0  0  0  0  0  0  0
  -16.7190  -25.1530  -11.9750 O   0  0  0  0  0  0  0  0  0  0  0  0
  -16.6420  -26.3210   -9.9210 C   0  0  0  0  0  0  0  0  0  0  0  0
  -16.6250  -25.8120   -7.4230 C   0  0  0  0  0  0  0  0  0  0  0  0
  -17.7590  -25.5290   -6.6850 C   0  0  0  0  0  0  0  0  0  0  0  0
  -17.9370  -26.0610   -5.4070 C   0  0  0  0  0  0  0  0  0  0  0  0
  -16.9200  -26.8830   -4.8580 C   0  0  0  0  0  0  0  0  0  0  0  0
  -17.0630  -27.4430   -3.5770 C   0  0  0  0  0  0  0  0  0  0  0  0
  -16.0410  -28.2470   -3.0630 C   0  0  0  0  0  0  0  0  0  0  0  0
  -14.8940  -28.5120   -3.7980 C   0  0  0  0  0  0  0  0  0  0  0  0
  -14.7460  -27.9640   -5.0720 C   0  0  0  0  0  0  0  0  0  0  0  0
  -15.7690  -27.1430   -5.5860 C   0  0  0  0  0  0  0  0  0  0  0  0
  -15.6050  -26.6030   -6.8520 C   0  0  0  0  0  0  0  0  0  0  0  0
  -13.3680  -27.1230  -13.5510 O   0  0  0  0  0  0  0  0  0  0  0  0
  -13.2650  -27.9200  -12.9670 H   0  0  0  0  0  0  0  0  0  0  0  0
  -13.7360  -27.1760  -10.8470 O   0  0  0  0  0  0  0  0  0  0  0  0
  -13.0690  -26.4740  -10.9910 H   0  0  0  0  0  0  0  0  0  0  0  0
  -15.2020  -25.5720  -15.1560 O   0  0  0  0  0  0  0  0  0  0  0  0
  -16.0020  -25.1070  -15.5500 H   0  0  0  0  0  0  0  0  0  0  0  0
  -18.0990  -26.4930  -13.4480 C   0  0  0  0  0  0  0  0  0  0  0  0
  -18.8270  -26.2230  -14.6340 O   0  0  0  0  0  0  0  0  0  0  0  0
  -19.4060  -25.4550  -14.4660 H   0  0  0  0  0  0  0  0  0  0  0  0
  1 12  1  1  0  0  0
  2  3  1  0  0  0  0
  2  1  1  0  0  0  0
  4  2  1  0  0  0  0
  5  4  1  0  0  0  0
  5 11  1  1  0  0  0
  6  5  1  1  0  0  0
  6 24  1  0  0  0  0
  7 22  1  6  0  0  0
  7  6  1  0  0  0  0
  8 26  1  6  0  0  0
  8  9  1  0  0  0  0
  8  7  1  0  0  0  0
  9 28  1  1  0  0  0
  9 10  1  0  0  0  0
 10  5  1  0  0  0  0
 11  1  1  0  0  0  0
 12 21  2  0  0  0  0
 12 13  1  0  0  0  0
 13 14  2  0  0  0  0
 14 15  1  0  0  0  0
 15 16  2  0  0  0  0
 16 17  1  0  0  0  0
 18 17  2  0  0  0  0
 19 18  1  0  0  0  0
 20 19  2  0  0  0  0
 20 15  1  0  0  0  0
 21 20  1  0  0  0  0
 22 23  1  0  0  0  0
 25 24  1  0  0  0  0
 27 26  1  0  0  0  0
 29 30  1  0  0  0  0
 29 28  1  0  0  0  0
M  END
>  <minimizedAffinity>
-9.32996082

$$$$

 OpenBabel12271914443D

 30 33  0  0  1  0  0  0  0  0999 V2000
  -25.3240  -25.5470   -3.8600 C   0  0  1  0  0  0  0  0  0  0  0  0
  -25.7930  -26.8530   -4.1330 N   0  0  0  0  0  0  0  0  0  0  0  0
  -26.7100  -26.8180   -4.6190 H   0  0  0  0  0  0  0  0  0  0  0  0
  -24.9120  -27.2870   -5.2100 O   0  0  0  0  0  0  0  0  0  0  0  0
  -24.6700  -26.1560   -6.0350 C   0  0  2  0  0  0  0  0  0  0  0  0
  -25.4890  -26.4230   -7.3110 C   0  0  1  0  0  0  0  0  0  0  0  0
  -24.7430  -27.4050   -8.1660 C   0  0  2  0  0  0  0  0  0  0  0  0
  -23.4630  -26.7030   -8.6540 C   0  0  1  0  0  0  0  0  0  0  0  0
  -22.6820  -25.9790   -7.5130 C   0  0  2  0  0  0  0  0  0  0  0  0
  -23.2630  -26.0600   -6.2210 O   0  0  0  0  0  0  0  0  0  0  0  0
  -25.1250  -24.9740   -5.2480 C   0  0  0  0  0  0  0  0  0  0  0  0
  -26.2320  -24.7410   -2.9640 C   0  0  0  0  0  0  0  0  0  0  0  0
  -27.5200  -25.1030   -2.6140 C   0  0  0  0  0  0  0  0  0  0  0  0
  -28.2790  -24.3130   -1.7490 C   0  0  0  0  0  0  0  0  0  0  0  0
  -27.7200  -23.1110   -1.2470 C   0  0  0  0  0  0  0  0  0  0  0  0
  -28.4490  -22.2920   -0.3690 C   0  0  0  0  0  0  0  0  0  0  0  0
  -27.8700  -21.1100    0.1050 C   0  0  0  0  0  0  0  0  0  0  0  0
  -26.5840  -20.7380   -0.2640 C   0  0  0  0  0  0  0  0  0  0  0  0
  -25.8520  -21.5490   -1.1320 C   0  0  0  0  0  0  0  0  0  0  0  0
  -26.4400  -22.7320   -1.6210 C   0  0  0  0  0  0  0  0  0  0  0  0
  -25.7000  -23.5250   -2.4860 C   0  0  0  0  0  0  0  0  0  0  0  0
  -25.5290  -27.8280   -9.2760 O   0  0  0  0  0  0  0  0  0  0  0  0
  -26.3740  -27.3070   -9.2780 H   0  0  0  0  0  0  0  0  0  0  0  0
  -26.8430  -26.9180   -7.0650 O   0  0  0  0  0  0  0  0  0  0  0  0
  -26.7600  -27.8830   -6.9220 H   0  0  0  0  0  0  0  0  0  0  0  0
  -22.6440  -27.6840   -9.3150 O   0  0  0  0  0  0  0  0  0  0  0  0
  -21.6770  -27.4280   -9.2070 H   0  0  0  0  0  0  0  0  0  0  0  0
  -22.3880  -24.5200   -7.8740 C   0  0  0  0  0  0  0  0  0  0  0  0
  -23.3320  -24.0010   -8.7960 O   0  0  0  0  0  0  0  0  0  0  0  0
  -23.0630  -24.2780   -9.6930 H   0  0  0  0  0  0  0  0  0  0  0  0
  1 12  1  1  0  0  0
  2  1  1  0  0  0  0
  3  2  1  0  0  0  0
  4  2  1  0  0  0  0
  5 11  1  1  0  0  0
  5  4  1  0  0  0  0
  6 24  1  0  0  0  0
  6  5  1  1  0  0  0
  7 22  1  6  0  0  0
  7  6  1  0  0  0  0
  8 26  1  1  0  0  0
  8  7  1  0  0  0  0
  8  9  1  0  0  0  0
  9 28  1  6  0  0  0
  9 10  1  0  0  0  0
 10  5  1  0  0  0  0
 11  1  1  0  0  0  0
 12 13  2  0  0  0  0
 12 21  1  0  0  0  0
 13 14  1  0  0  0  0
 14 15  2  0  0  0  0
 15 16  1  0  0  0  0
 16 17  2  0  0  0  0
 18 17  1  0  0  0  0
 19 18  2  0  0  0  0
 20 15  1  0  0  0  0
 20 19  1  0  0  0  0
 21 20  2  0  0  0  0
 23 22  1  0  0  0  0
 24 25  1  0  0  0  0
 26 27  1  0  0  0  0
 29 28  1  0  0  0  0
 30 29  1  0  0  0  0
M  END
>  <minimizedAffinity>
-9.24684525

$$$$

 OpenBabel12271914443D

 30 33  0  0  1  0  0  0  0  0999 V2000
  -14.3350  -25.7330  -11.7460 C   0  0  1  0  0  0  0  0  0  0  0  0
  -13.0640  -25.7490  -12.3680 N   0  0  0  0  0  0  0  0  0  0  0  0
  -12.6320  -26.6900  -12.2910 H   0  0  0  0  0  0  0  0  0  0  0  0
  -13.4050  -25.7020  -13.7850 O   0  0  0  0  0  0  0  0  0  0  0  0
  -14.5760  -26.4880  -13.9600 C   0  0  2  0  0  0  0  0  0  0  0  0
  -14.0850  -27.7670  -14.6610 C   0  0  1  0  0  0  0  0  0  0  0  0
  -13.8770  -27.4680  -16.1170 C   0  0  2  0  0  0  0  0  0  0  0  0
  -15.2610  -27.1860  -16.7270 C   0  0  1  0  0  0  0  0  0  0  0  0
  -16.1140  -26.1860  -15.8860 C   0  0  2  0  0  0  0  0  0  0  0  0
  -15.5060  -25.7050  -14.6980 O   0  0  0  0  0  0  0  0  0  0  0  0
  -15.1260  -26.7090  -12.5910 C   0  0  0  0  0  0  0  0  0  0  0  0
  -14.3030  -26.0500  -10.2710 C   0  0  0  0  0  0  0  0  0  0  0  0
  -13.1510  -26.2030   -9.5220 C   0  0  0  0  0  0  0  0  0  0  0  0
  -13.2130  -26.4610   -8.1510 C   0  0  0  0  0  0  0  0  0  0  0  0
  -14.4840  -26.5900   -7.5340 C   0  0  0  0  0  0  0  0  0  0  0  0
  -14.5890  -26.8430   -6.1560 C   0  0  0  0  0  0  0  0  0  0  0  0
  -15.8570  -26.9680   -5.5780 C   0  0  0  0  0  0  0  0  0  0  0  0
  -17.0110  -26.8340   -6.3360 C   0  0  0  0  0  0  0  0  0  0  0  0
  -16.9140  -26.5780   -7.7040 C   0  0  0  0  0  0  0  0  0  0  0  0
  -15.6390  -26.4650   -8.2900 C   0  0  0  0  0  0  0  0  0  0  0  0
  -15.5600  -26.2150   -9.6520 C   0  0  0  0  0  0  0  0  0  0  0  0
  -13.2540  -28.5610  -16.7870 O   0  0  0  0  0  0  0  0  0  0  0  0
  -13.1740  -29.3150  -16.1460 H   0  0  0  0  0  0  0  0  0  0  0  0
  -12.8600  -28.3320  -14.0970 O   0  0  0  0  0  0  0  0  0  0  0  0
  -12.1190  -27.8330  -14.4970 H   0  0  0  0  0  0  0  0  0  0  0  0
  -15.0650  -26.7120  -18.0720 O   0  0  0  0  0  0  0  0  0  0  0  0
  -15.8180  -26.0900  -18.3110 H   0  0  0  0  0  0  0  0  0  0  0  0
  -17.5040  -26.7530  -15.5800 C   0  0  0  0  0  0  0  0  0  0  0  0
  -18.1280  -26.0760  -14.5020 O   0  0  0  0  0  0  0  0  0  0  0  0
  -17.7890  -26.4550  -13.6690 H   0  0  0  0  0  0  0  0  0  0  0  0
  1 12  1  1  0  0  0
  2  3  1  0  0  0  0
  2  1  1  0  0  0  0
  4  2  1  0  0  0  0
  5  4  1  0  0  0  0
  5 11  1  1  0  0  0
  6 24  1  0  0  0  0
  6  5  1  1  0  0  0
  7 22  1  6  0  0  0
  7  6  1  0  0  0  0
  8 26  1  6  0  0  0
  8  7  1  0  0  0  0
  8  9  1  0  0  0  0
  9 28  1  1  0  0  0
  9 10  1  0  0  0  0
 10  5  1  0  0  0  0
 11  1  1  0  0  0  0
 12 21  2  0  0  0  0
 12 13  1  0  0  0  0
 13 14  2  0  0  0  0
 14 15  1  0  0  0  0
 15 16  2  0  0  0  0
 16 17  1  0  0  0  0
 18 17  2  0  0  0  0
 19 18  1  0  0  0  0
 20 19  2  0  0  0  0
 20 15  1  0  0  0  0
 21 20  1  0  0  0  0
 22 23  1  0  0  0  0
 25 24  1  0  0  0  0
 27 26  1  0  0  0  0
 28 29  1  0  0  0  0
 29 30  1  0  0  0  0
M  END
>  <minimizedAffinity>
-8.80189991

$$$$

 OpenBabel12271914443D

 30 33  0  0  1  0  0  0  0  0999 V2000
  -21.8440  -25.4930   -8.1410 C   0  0  1  0  0  0  0  0  0  0  0  0
  -22.4670  -25.9360   -9.3310 N   0  0  0  0  0  0  0  0  0  0  0  0
  -22.5240  -26.9730   -9.3480 H   0  0  0  0  0  0  0  0  0  0  0  0
  -23.8620  -25.5740   -9.1100 O   0  0  0  0  0  0  0  0  0  0  0  0
  -24.1400  -25.7940   -7.7350 C   0  0  2  0  0  0  0  0  0  0  0  0
  -25.0150  -27.0600   -7.7120 C   0  0  1  0  0  0  0  0  0  0  0  0
  -26.4160  -26.6850   -8.0970 C   0  0  2  0  0  0  0  0  0  0  0  0
  -26.9750  -25.7950   -6.9740 C   0  0  1  0  0  0  0  0  0  0  0  0
  -25.9990  -24.6540   -6.5460 C   0  0  2  0  0  0  0  0  0  0  0  0
  -24.7580  -24.6160   -7.2330 O   0  0  0  0  0  0  0  0  0  0  0  0
  -22.8130  -25.9510   -7.0720 C   0  0  0  0  0  0  0  0  0  0  0  0
  -20.4270  -25.9830   -7.9680 C   0  0  0  0  0  0  0  0  0  0  0  0
  -19.6080  -26.4090   -8.9970 C   0  0  0  0  0  0  0  0  0  0  0  0
  -18.2950  -26.8140   -8.7500 C   0  0  0  0  0  0  0  0  0  0  0  0
  -17.8140  -26.8090   -7.4160 C   0  0  0  0  0  0  0  0  0  0  0  0
  -16.4970  -27.2030   -7.1270 C   0  0  0  0  0  0  0  0  0  0  0  0
  -16.0530  -27.1900   -5.8010 C   0  0  0  0  0  0  0  0  0  0  0  0
  -16.8850  -26.7830   -4.7670 C   0  0  0  0  0  0  0  0  0  0  0  0
  -18.1920  -26.3850   -5.0470 C   0  0  0  0  0  0  0  0  0  0  0  0
  -18.6440  -26.4110   -6.3800 C   0  0  0  0  0  0  0  0  0  0  0  0
  -19.9480  -26.0160   -6.6410 C   0  0  0  0  0  0  0  0  0  0  0  0
  -27.2340  -27.8390   -8.2680 O   0  0  0  0  0  0  0  0  0  0  0  0
  -26.7050  -28.6380   -8.0070 H   0  0  0  0  0  0  0  0  0  0  0  0
  -24.5400  -28.1370   -8.5800 O   0  0  0  0  0  0  0  0  0  0  0  0
  -24.8700  -27.9300   -9.4780 H   0  0  0  0  0  0  0  0  0  0  0  0
  -28.2410  -25.2700   -7.4110 O   0  0  0  0  0  0  0  0  0  0  0  0
  -28.3880  -24.3720   -6.9820 H   0  0  0  0  0  0  0  0  0  0  0  0
  -25.7690  -24.6510   -5.0320 C   0  0  0  0  0  0  0  0  0  0  0  0
  -25.1150  -23.4700   -4.5980 O   0  0  0  0  0  0  0  0  0  0  0  0
  -24.1560  -23.5840   -4.7430 H   0  0  0  0  0  0  0  0  0  0  0  0
  1 12  1  1  0  0  0
  1 11  1  0  0  0  0
  2  4  1  0  0  0  0
  2  1  1  0  0  0  0
  3  2  1  0  0  0  0
  4  5  1  0  0  0  0
  5 10  1  0  0  0  0
  5 11  1  1  0  0  0
  6  5  1  6  0  0  0
  7 22  1  1  0  0  0
  7  6  1  0  0  0  0
  7  8  1  0  0  0  0
  8 26  1  6  0  0  0
  8  9  1  0  0  0  0
  9 28  1  1  0  0  0
 10  9  1  0  0  0  0
 12 21  2  0  0  0  0
 13 14  2  0  0  0  0
 13 12  1  0  0  0  0
 14 15  1  0  0  0  0
 15 16  2  0  0  0  0
 15 20  1  0  0  0  0
 16 17  1  0  0  0  0
 17 18  2  0  0  0  0
 19 18  1  0  0  0  0
 20 19  2  0  0  0  0
 21 20  1  0  0  0  0
 22 23  1  0  0  0  0
 24  6  1  0  0  0  0
 25 24  1  0  0  0  0
 26 27  1  0  0  0  0
 28 29  1  0  0  0  0
 30 29  1  0  0  0  0
M  END
>  <minimizedAffinity>
-8.7645359

$$$$

 OpenBabel12271914443D

 30 33  0  0  1  0  0  0  0  0999 V2000
  -14.6590  -25.4280  -12.1690 C   0  0  1  0  0  0  0  0  0  0  0  0
  -13.2830  -25.7530  -12.2030 N   0  0  0  0  0  0  0  0  0  0  0  0
  -13.1450  -26.7730  -12.0650 H   0  0  0  0  0  0  0  0  0  0  0  0
  -12.9580  -25.6050  -13.6160 O   0  0  0  0  0  0  0  0  0  0  0  0
  -14.0780  -26.0710  -14.3550 C   0  0  2  0  0  0  0  0  0  0  0  0
  -13.6260  -27.4230  -14.9350 C   0  0  1  0  0  0  0  0  0  0  0  0
  -12.7480  -27.1670  -16.1250 C   0  0  2  0  0  0  0  0  0  0  0  0
  -13.6320  -26.5410  -17.2170 C   0  0  1  0  0  0  0  0  0  0  0  0
  -14.5230  -25.3700  -16.6950 C   0  0  2  0  0  0  0  0  0  0  0  0
  -14.4000  -25.0720  -15.3140 O   0  0  0  0  0  0  0  0  0  0  0  0
  -15.2000  -26.1660  -13.3760 C   0  0  0  0  0  0  0  0  0  0  0  0
  -15.3390  -25.7620  -10.8640 C   0  0  0  0  0  0  0  0  0  0  0  0
  -16.7070  -25.8560  -10.6880 C   0  0  0  0  0  0  0  0  0  0  0  0
  -17.2510  -26.2050   -9.4510 C   0  0  0  0  0  0  0  0  0  0  0  0
  -16.3780  -26.4410   -8.3580 C   0  0  0  0  0  0  0  0  0  0  0  0
  -16.8860  -26.8000   -7.0990 C   0  0  0  0  0  0  0  0  0  0  0  0
  -15.9990  -27.0230   -6.0410 C   0  0  0  0  0  0  0  0  0  0  0  0
  -14.6270  -26.9070   -6.2140 C   0  0  0  0  0  0  0  0  0  0  0  0
  -14.1150  -26.5550   -7.4640 C   0  0  0  0  0  0  0  0  0  0  0  0
  -15.0080  -26.3180   -8.5270 C   0  0  0  0  0  0  0  0  0  0  0  0
  -14.4830  -25.9640   -9.7610 C   0  0  0  0  0  0  0  0  0  0  0  0
  -12.1540  -28.3720  -16.6000 O   0  0  0  0  0  0  0  0  0  0  0  0
  -12.5270  -29.1310  -16.0800 H   0  0  0  0  0  0  0  0  0  0  0  0
  -12.9230  -28.2830  -13.9840 O   0  0  0  0  0  0  0  0  0  0  0  0
  -11.9930  -27.9800  -13.9770 H   0  0  0  0  0  0  0  0  0  0  0  0
  -12.7760  -26.1140  -18.2920 O   0  0  0  0  0  0  0  0  0  0  0  0
  -13.1930  -25.3200  -18.7460 H   0  0  0  0  0  0  0  0  0  0  0  0
  -15.9950  -25.5770  -17.0660 C   0  0  0  0  0  0  0  0  0  0  0  0
  -16.4740  -24.5530  -17.9220 O   0  0  0  0  0  0  0  0  0  0  0  0
  -16.7200  -23.7870  -17.3700 H   0  0  0  0  0  0  0  0  0  0  0  0
  1 12  1  1  0  0  0
  2  1  1  0  0  0  0
  2  3  1  0  0  0  0
  4  2  1  0  0  0  0
  5  4  1  0  0  0  0
  5 11  1  1  0  0  0
  6  5  1  1  0  0  0
  6 24  1  0  0  0  0
  7 22  1  6  0  0  0
  7  6  1  0  0  0  0
  8 26  1  6  0  0  0
  8  9  1  0  0  0  0
  8  7  1  0  0  0  0
  9 28  1  1  0  0  0
  9 10  1  0  0  0  0
 10  5  1  0  0  0  0
 11  1  1  0  0  0  0
 12 13  2  0  0  0  0
 12 21  1  0  0  0  0
 13 14  1  0  0  0  0
 14 15  2  0  0  0  0
 15 16  1  0  0  0  0
 16 17  2  0  0  0  0
 18 17  1  0  0  0  0
 19 18  2  0  0  0  0
 20 15  1  0  0  0  0
 20 19  1  0  0  0  0
 21 20  2  0  0  0  0
 22 23  1  0  0  0  0
 24 25  1  0  0  0  0
 27 26  1  0  0  0  0
 29 30  1  0  0  0  0
 29 28  1  0  0  0  0
M  END
>  <minimizedAffinity>
-8.71181774

$$$$

 OpenBabel12271914443D

 30 33  0  0  1  0  0  0  0  0999 V2000
  -16.6770  -26.4900  -11.9230 C   0  0  1  0  0  0  0  0  0  0  0  0
  -15.8480  -25.4480  -12.3980 N   0  0  0  0  0  0  0  0  0  0  0  0
  -14.8930  -25.5300  -12.0000 H   0  0  0  0  0  0  0  0  0  0  0  0
  -15.6180  -25.8340  -13.7850 O   0  0  0  0  0  0  0  0  0  0  0  0
  -15.5000  -27.2490  -13.8120 C   0  0  2  0  0  0  0  0  0  0  0  0
  -14.0010  -27.5110  -14.0430 C   0  0  1  0  0  0  0  0  0  0  0  0
  -13.6940  -27.3000  -15.4970 C   0  0  2  0  0  0  0  0  0  0  0  0
  -14.4170  -28.4080  -16.2810 C   0  0  1  0  0  0  0  0  0  0  0  0
  -15.9110  -28.5880  -15.8630 C   0  0  2  0  0  0  0  0  0  0  0  0
  -16.3680  -27.7290  -14.8310 O   0  0  0  0  0  0  0  0  0  0  0  0
  -16.0110  -27.7250  -12.4940 C   0  0  0  0  0  0  0  0  0  0  0  0
  -16.8570  -26.5000  -10.4250 C   0  0  0  0  0  0  0  0  0  0  0  0
  -18.0510  -26.2570   -9.7720 C   0  0  0  0  0  0  0  0  0  0  0  0
  -18.1360  -26.3220   -8.3800 C   0  0  0  0  0  0  0  0  0  0  0  0
  -16.9670  -26.6180   -7.6340 C   0  0  0  0  0  0  0  0  0  0  0  0
  -17.0120  -26.6980   -6.2320 C   0  0  0  0  0  0  0  0  0  0  0  0
  -15.8410  -26.9890   -5.5250 C   0  0  0  0  0  0  0  0  0  0  0  0
  -14.6390  -27.2120   -6.1810 C   0  0  0  0  0  0  0  0  0  0  0  0
  -14.5880  -27.1390   -7.5740 C   0  0  0  0  0  0  0  0  0  0  0  0
  -15.7630  -26.8330   -8.2860 C   0  0  0  0  0  0  0  0  0  0  0  0
  -15.6940  -26.7600   -9.6700 C   0  0  0  0  0  0  0  0  0  0  0  0
  -12.2920  -27.3530  -15.7450 O   0  0  0  0  0  0  0  0  0  0  0  0
  -11.8350  -27.6040  -14.8990 H   0  0  0  0  0  0  0  0  0  0  0  0
  -13.1120  -26.6820  -13.2300 O   0  0  0  0  0  0  0  0  0  0  0  0
  -13.0310  -25.8270  -13.6980 H   0  0  0  0  0  0  0  0  0  0  0  0
  -14.2930  -28.1140  -17.6840 O   0  0  0  0  0  0  0  0  0  0  0  0
  -15.0970  -28.4780  -18.1660 H   0  0  0  0  0  0  0  0  0  0  0  0
  -16.2260  -30.0470  -15.5200 C   0  0  0  0  0  0  0  0  0  0  0  0
  -15.4100  -30.9500  -16.2480 O   0  0  0  0  0  0  0  0  0  0  0  0
  -15.8070  -31.0720  -17.1310 H   0  0  0  0  0  0  0  0  0  0  0  0
  1 12  1  1  0  0  0
  2  3  1  0  0  0  0
  2  1  1  0  0  0  0
  4  2  1  0  0  0  0
  5  4  1  0  0  0  0
  5 11  1  1  0  0  0
  6  5  1  6  0  0  0
  6 24  1  0  0  0  0
  7 22  1  1  0  0  0
  7  6  1  0  0  0  0
  8 26  1  6  0  0  0
  8  9  1  0  0  0  0
  8  7  1  0  0  0  0
  9 28  1  1  0  0  0
  9 10  1  0  0  0  0
 10  5  1  0  0  0  0
 11  1  1  0  0  0  0
 12 13  2  0  0  0  0
 12 21  1  0  0  0  0
 13 14  1  0  0  0  0
 14 15  2  0  0  0  0
 15 16  1  0  0  0  0
 16 17  2  0  0  0  0
 18 17  1  0  0  0  0
 19 18  2  0  0  0  0
 20 15  1  0  0  0  0
 20 19  1  0  0  0  0
 21 20  2  0  0  0  0
 22 23  1  0  0  0  0
 25 24  1  0  0  0  0
 27 26  1  0  0  0  0
 29 28  1  0  0  0  0
 30 29  1  0  0  0  0
M  END
>  <minimizedAffinity>
-8.67025185

$$$$

 OpenBabel12271914443D

 30 33  0  0  1  0  0  0  0  0999 V2000
  -18.9400  -26.0260  -11.1700 C   0  0  1  0  0  0  0  0  0  0  0  0
  -19.2950  -27.1860  -11.8960 N   0  0  0  0  0  0  0  0  0  0  0  0
  -19.0770  -28.0410  -11.3480 H   0  0  0  0  0  0  0  0  0  0  0  0
  -20.7520  -27.1660  -11.8310 O   0  0  0  0  0  0  0  0  0  0  0  0
  -21.1070  -26.6870  -10.5420 C   0  0  2  0  0  0  0  0  0  0  0  0
  -21.6180  -27.9300   -9.7920 C   0  0  1  0  0  0  0  0  0  0  0  0
  -23.0190  -28.2230  -10.2430 C   0  0  2  0  0  0  0  0  0  0  0  0
  -23.9070  -27.0680   -9.7490 C   0  0  1  0  0  0  0  0  0  0  0  0
  -23.3140  -25.6570  -10.0580 C   0  0  2  0  0  0  0  0  0  0  0  0
  -22.0610  -25.6480  -10.7220 O   0  0  0  0  0  0  0  0  0  0  0  0
  -19.8630  -26.0930   -9.9720 C   0  0  0  0  0  0  0  0  0  0  0  0
  -17.4710  -25.9340  -10.8360 C   0  0  0  0  0  0  0  0  0  0  0  0
  -16.4740  -25.6220  -11.7410 C   0  0  0  0  0  0  0  0  0  0  0  0
  -15.1410  -25.5230  -11.3380 C   0  0  0  0  0  0  0  0  0  0  0  0
  -14.8140  -25.7740   -9.9810 C   0  0  0  0  0  0  0  0  0  0  0  0
  -13.4850  -25.6790   -9.5340 C   0  0  0  0  0  0  0  0  0  0  0  0
  -13.1950  -25.9360   -8.1910 C   0  0  0  0  0  0  0  0  0  0  0  0
  -14.1950  -26.2700   -7.2880 C   0  0  0  0  0  0  0  0  0  0  0  0
  -15.5170  -26.3620   -7.7230 C   0  0  0  0  0  0  0  0  0  0  0  0
  -15.8090  -26.1170   -9.0790 C   0  0  0  0  0  0  0  0  0  0  0  0
  -17.1280  -26.2160   -9.4970 C   0  0  0  0  0  0  0  0  0  0  0  0
  -23.4840  -29.4630   -9.7190 O   0  0  0  0  0  0  0  0  0  0  0  0
  -22.7960  -29.8180   -9.0970 H   0  0  0  0  0  0  0  0  0  0  0  0
  -20.7880  -29.1220   -9.9660 O   0  0  0  0  0  0  0  0  0  0  0  0
  -21.0640  -29.5260  -10.8140 H   0  0  0  0  0  0  0  0  0  0  0  0
  -25.2130  -27.2310  -10.3310 O   0  0  0  0  0  0  0  0  0  0  0  0
  -25.6340  -26.3250  -10.4470 H   0  0  0  0  0  0  0  0  0  0  0  0
  -23.2560  -24.7850   -8.8000 C   0  0  0  0  0  0  0  0  0  0  0  0
  -23.0190  -23.4220   -9.1110 O   0  0  0  0  0  0  0  0  0  0  0  0
  -22.0580  -23.3030   -9.2390 H   0  0  0  0  0  0  0  0  0  0  0  0
  1 12  1  1  0  0  0
  1 11  1  0  0  0  0
  2  4  1  0  0  0  0
  2  3  1  0  0  0  0
  2  1  1  0  0  0  0
  4  5  1  0  0  0  0
  5 11  1  1  0  0  0
  6  5  1  6  0  0  0
  7  6  1  0  0  0  0
  7  8  1  0  0  0  0
  7 22  1  1  0  0  0
  8 26  1  6  0  0  0
  9  8  1  0  0  0  0
  9 28  1  1  0  0  0
 10  5  1  0  0  0  0
 10  9  1  0  0  0  0
 12 21  2  0  0  0  0
 13 14  2  0  0  0  0
 13 12  1  0  0  0  0
 14 15  1  0  0  0  0
 15 16  2  0  0  0  0
 15 20  1  0  0  0  0
 16 17  1  0  0  0  0
 17 18  2  0  0  0  0
 19 18  1  0  0  0  0
 20 19  2  0  0  0  0
 21 20  1  0  0  0  0
 22 23  1  0  0  0  0
 24  6  1  0  0  0  0
 25 24  1  0  0  0  0
 27 26  1  0  0  0  0
 29 28  1  0  0  0  0
 30 29  1  0  0  0  0
M  END
>  <minimizedAffinity>
-8.57090473

$$$$

 OpenBabel12271914443D

 30 33  0  0  1  0  0  0  0  0999 V2000
  -26.9720  -26.3940   -4.8910 C   0  0  1  0  0  0  0  0  0  0  0  0
  -25.6940  -26.4000   -5.4950 N   0  0  0  0  0  0  0  0  0  0  0  0
  -24.9740  -26.7300   -4.8230 H   0  0  0  0  0  0  0  0  0  0  0  0
  -25.7810  -27.5340   -6.4070 O   0  0  0  0  0  0  0  0  0  0  0  0
  -26.5450  -28.5380   -5.7540 C   0  0  2  0  0  0  0  0  0  0  0  0
  -25.5180  -29.6130   -5.3570 C   0  0  1  0  0  0  0  0  0  0  0  0
  -25.1840  -30.4320   -6.5690 C   0  0  2  0  0  0  0  0  0  0  0  0
  -26.4500  -31.2160   -6.9530 C   0  0  1  0  0  0  0  0  0  0  0  0
  -27.7350  -30.3300   -6.9950 C   0  0  2  0  0  0  0  0  0  0  0  0
  -27.5520  -28.9630   -6.6640 O   0  0  0  0  0  0  0  0  0  0  0  0
  -27.2060  -27.8610   -4.6010 C   0  0  0  0  0  0  0  0  0  0  0  0
  -27.0830  -25.4840   -3.6920 C   0  0  0  0  0  0  0  0  0  0  0  0
  -28.0410  -25.5970   -2.7010 C   0  0  0  0  0  0  0  0  0  0  0  0
  -28.0480  -24.7320   -1.6060 C   0  0  0  0  0  0  0  0  0  0  0  0
  -27.0680  -23.7090   -1.5310 C   0  0  0  0  0  0  0  0  0  0  0  0
  -27.0370  -22.8220   -0.4420 C   0  0  0  0  0  0  0  0  0  0  0  0
  -26.0600  -21.8230   -0.4000 C   0  0  0  0  0  0  0  0  0  0  0  0
  -25.1130  -21.6980   -1.4070 C   0  0  0  0  0  0  0  0  0  0  0  0
  -25.1340  -22.5780   -2.4890 C   0  0  0  0  0  0  0  0  0  0  0  0
  -26.1260  -23.5770   -2.5390 C   0  0  0  0  0  0  0  0  0  0  0  0
  -26.1350  -24.4410   -3.6240 C   0  0  0  0  0  0  0  0  0  0  0  0
  -24.1070  -31.3280   -6.3090 O   0  0  0  0  0  0  0  0  0  0  0  0
  -23.8740  -31.2660   -5.3450 H   0  0  0  0  0  0  0  0  0  0  0  0
  -24.2880  -29.0830   -4.7690 O   0  0  0  0  0  0  0  0  0  0  0  0
  -23.7170  -28.8210   -5.5200 H   0  0  0  0  0  0  0  0  0  0  0  0
  -26.2090  -31.8570   -8.2180 O   0  0  0  0  0  0  0  0  0  0  0  0
  -27.0820  -31.9450   -8.7110 H   0  0  0  0  0  0  0  0  0  0  0  0
  -28.8610  -30.9360   -6.1510 C   0  0  0  0  0  0  0  0  0  0  0  0
  -29.0010  -32.3290   -6.3750 O   0  0  0  0  0  0  0  0  0  0  0  0
  -29.5380  -32.4530   -7.1810 H   0  0  0  0  0  0  0  0  0  0  0  0
  1 11  1  0  0  0  0
  1 12  1  1  0  0  0
  2  1  1  0  0  0  0
  2  3  1  0  0  0  0
  4  5  1  0  0  0  0
  4  2  1  0  0  0  0
  5 11  1  1  0  0  0
  6  5  1  6  0  0  0
  6 24  1  0  0  0  0
  7 22  1  1  0  0  0
  7  6  1  0  0  0  0
  8 26  1  6  0  0  0
  8  7  1  0  0  0  0
  9  8  1  0  0  0  0
  9 10  1  0  0  0  0
  9 28  1  1  0  0  0
 10  5  1  0  0  0  0
 12 21  2  0  0  0  0
 12 13  1  0  0  0  0
 13 14  2  0  0  0  0
 14 15  1  0  0  0  0
 15 16  2  0  0  0  0
 16 17  1  0  0  0  0
 18 17  2  0  0  0  0
 19 18  1  0  0  0  0
 20 19  2  0  0  0  0
 20 15  1  0  0  0  0
 21 20  1  0  0  0  0
 22 23  1  0  0  0  0
 25 24  1  0  0  0  0
 27 26  1  0  0  0  0
 29 28  1  0  0  0  0
 30 29  1  0  0  0  0
M  END
>  <minimizedAffinity>
-8.52511215

$$$$

 OpenBabel12271914443D

 30 33  0  0  1  0  0  0  0  0999 V2000
  -15.4620  -27.2780  -11.6990 C   0  0  1  0  0  0  0  0  0  0  0  0
  -16.4050  -27.9620  -12.5000 N   0  0  0  0  0  0  0  0  0  0  0  0
  -17.2680  -27.3950  -12.6130 H   0  0  0  0  0  0  0  0  0  0  0  0
  -15.8190  -27.8660  -13.8310 O   0  0  0  0  0  0  0  0  0  0  0  0
  -15.2160  -26.5840  -13.9320 C   0  0  2  0  0  0  0  0  0  0  0  0
  -16.1490  -25.7870  -14.8620 C   0  0  1  0  0  0  0  0  0  0  0  0
  -15.8810  -26.1990  -16.2800 C   0  0  2  0  0  0  0  0  0  0  0  0
  -14.4630  -25.7210  -16.6340 C   0  0  1  0  0  0  0  0  0  0  0  0
  -13.4000  -26.0830  -15.5500 C   0  0  2  0  0  0  0  0  0  0  0  0
  -13.8910  -26.7740  -14.4130 O   0  0  0  0  0  0  0  0  0  0  0  0
  -15.1420  -26.0580  -12.5380 C   0  0  0  0  0  0  0  0  0  0  0  0
  -15.9420  -26.9780  -10.3000 C   0  0  0  0  0  0  0  0  0  0  0  0
  -17.1280  -26.3360   -9.9930 C   0  0  0  0  0  0  0  0  0  0  0  0
  -17.5130  -26.1310   -8.6670 C   0  0  0  0  0  0  0  0  0  0  0  0
  -16.6540  -26.5700   -7.6270 C   0  0  0  0  0  0  0  0  0  0  0  0
  -17.0080  -26.3880   -6.2800 C   0  0  0  0  0  0  0  0  0  0  0  0
  -16.1380  -26.8290   -5.2780 C   0  0  0  0  0  0  0  0  0  0  0  0
  -14.9390  -27.4550   -5.5880 C   0  0  0  0  0  0  0  0  0  0  0  0
  -14.5830  -27.6430   -6.9240 C   0  0  0  0  0  0  0  0  0  0  0  0
  -15.4520  -27.1870   -7.9340 C   0  0  0  0  0  0  0  0  0  0  0  0
  -15.0810  -27.3790   -9.2570 C   0  0  0  0  0  0  0  0  0  0  0  0
  -16.8340  -25.6300  -17.1740 O   0  0  0  0  0  0  0  0  0  0  0  0
  -17.4170  -25.0130  -16.6580 H   0  0  0  0  0  0  0  0  0  0  0  0
  -17.5720  -25.9450  -14.5660 O   0  0  0  0  0  0  0  0  0  0  0  0
  -17.8520  -26.7750  -15.0030 H   0  0  0  0  0  0  0  0  0  0  0  0
  -14.1160  -26.2690  -17.9180 O   0  0  0  0  0  0  0  0  0  0  0  0
  -13.1200  -26.4030  -17.9580 H   0  0  0  0  0  0  0  0  0  0  0  0
  -12.5970  -24.8520  -15.1190 C   0  0  0  0  0  0  0  0  0  0  0  0
  -11.9990  -25.0290  -13.8450 O   0  0  0  0  0  0  0  0  0  0  0  0
  -12.6700  -24.8310  -13.1650 H   0  0  0  0  0  0  0  0  0  0  0  0
  1 12  1  1  0  0  0
  2  1  1  0  0  0  0
  3  2  1  0  0  0  0
  4  2  1  0  0  0  0
  5  4  1  0  0  0  0
  5 11  1  1  0  0  0
  6 24  1  0  0  0  0
  6  5  1  1  0  0  0
  7 22  1  6  0  0  0
  7  6  1  0  0  0  0
  8 26  1  6  0  0  0
  8  7  1  0  0  0  0
  8  9  1  0  0  0  0
  9 28  1  1  0  0  0
  9 10  1  0  0  0  0
 10  5  1  0  0  0  0
 11  1  1  0  0  0  0
 12 13  2  0  0  0  0
 12 21  1  0  0  0  0
 13 14  1  0  0  0  0
 14 15  2  0  0  0  0
 15 16  1  0  0  0  0
 16 17  2  0  0  0  0
 18 17  1  0  0  0  0
 19 18  2  0  0  0  0
 20 15  1  0  0  0  0
 20 19  1  0  0  0  0
 21 20  2  0  0  0  0
 22 23  1  0  0  0  0
 25 24  1  0  0  0  0
 27 26  1  0  0  0  0
 28 29  1  0  0  0  0
 29 30  1  0  0  0  0
M  END
>  <minimizedAffinity>
-8.44915867

$$$$
