
 OpenBabel12271914493D

 32 35  0  0  1  0  0  0  0  0999 V2000
  -14.3660  -25.4880  -11.1770 C   0  0  0  0  0  0  0  0  0  0  0  0
  -15.1820  -25.6840  -10.0310 C   0  0  0  0  0  0  0  0  0  0  0  0
  -14.6270  -25.8330   -8.7830 C   0  0  0  0  0  0  0  0  0  0  0  0
  -13.2390  -25.8020   -8.7320 C   0  0  0  0  0  0  0  0  0  0  0  0
  -12.4220  -25.6340   -9.7690 N   0  0  0  0  0  0  0  0  0  0  0  0
  -12.9730  -25.4390  -10.9820 C   0  0  0  0  0  0  0  0  0  0  0  0
  -15.5210  -26.0440   -7.6220 C   0  0  0  0  0  0  0  0  0  0  0  0
  -16.7570  -25.4720   -7.4570 C   0  0  0  0  0  0  0  0  0  0  0  0
  -17.5940  -25.6840   -6.3460 C   0  0  0  0  0  0  0  0  0  0  0  0
  -17.0960  -26.5330   -5.3410 C   0  0  0  0  0  0  0  0  0  0  0  0
  -17.6190  -26.9360   -4.1260 N   0  0  0  0  0  0  0  0  0  0  0  0
  -18.4800  -26.7070   -3.7030 H   0  0  0  0  0  0  0  0  0  0  0  0
  -16.8000  -27.7550   -3.4770 N   0  0  0  0  0  0  0  0  0  0  0  0
  -15.7160  -27.8890   -4.2680 C   0  0  0  0  0  0  0  0  0  0  0  0
  -14.5810  -28.7140   -3.8790 C   0  0  0  0  0  0  0  0  0  0  0  0
  -15.8980  -27.1250   -5.4510 C   0  0  0  0  0  0  0  0  0  0  0  0
  -15.0790  -26.9200   -6.5890 C   0  0  0  0  0  0  0  0  0  0  0  0
  -15.0840  -25.4660  -12.3230 O   0  0  0  0  0  0  0  0  0  0  0  0
  -15.0820  -26.5760  -13.1600 C   0  0  0  0  0  0  0  0  0  0  0  0
  -16.4670  -27.2350  -13.2630 C   0  0  1  0  0  0  0  0  0  0  0  0
  -16.5930  -27.9290  -14.5960 N   0  0  0  0  0  0  0  0  0  0  0  0
  -16.5640  -27.2430  -15.3790 H   0  0  0  0  0  0  0  0  0  0  0  0
  -17.4490  -28.4570  -14.7120 H   0  0  0  0  0  0  0  0  0  0  0  0
  -15.7710  -28.5520  -14.7640 H   0  0  0  0  0  0  0  0  0  0  0  0
  -16.8000  -28.2080  -12.1030 C   0  0  0  0  0  0  0  0  0  0  0  0
  -17.8100  -27.6790  -11.1190 C   0  0  0  0  0  0  0  0  0  0  0  0
  -18.0340  -28.3610   -9.9180 C   0  0  0  0  0  0  0  0  0  0  0  0
  -18.9940  -27.8960   -9.0080 C   0  0  0  0  0  0  0  0  0  0  0  0
  -19.7240  -26.7460   -9.2700 C   0  0  0  0  0  0  0  0  0  0  0  0
  -20.9810  -26.0980   -8.0450 Br  0  0  0  0  0  0  0  0  0  0  0  0
  -19.4890  -26.0620  -10.4590 C   0  0  0  0  0  0  0  0  0  0  0  0
  -18.5270  -26.5320  -11.3760 C   0  0  0  0  0  0  0  0  0  0  0  0
  1  6  2  0  0  0  0
  1  2  1  0  0  0  0
  2  3  2  0  0  0  0
  3  4  1  0  0  0  0
  3  7  1  0  0  0  0
  5  4  2  0  0  0  0
  6  5  1  0  0  0  0
  7  8  2  0  0  0  0
  7 17  1  0  0  0  0
  8  9  1  0  0  0  0
  9 10  2  0  0  0  0
 10 11  1  0  0  0  0
 11 12  1  0  0  0  0
 11 13  1  0  0  0  0
 14 15  1  0  0  0  0
 14 13  2  0  0  0  0
 16 10  1  0  0  0  0
 16 14  1  0  0  0  0
 17 16  2  0  0  0  0
 18  1  1  0  0  0  0
 19 18  1  0  0  0  0
 20 19  1  1  0  0  0
 20 25  1  0  0  0  0
 21 20  1  0  0  0  0
 22 21  1  0  0  0  0
 23 21  1  0  0  0  0
 24 21  1  0  0  0  0
 25 26  1  0  0  0  0
 26 27  1  0  0  0  0
 27 28  2  0  0  0  0
 29 28  1  0  0  0  0
 29 30  1  0  0  0  0
 31 29  2  0  0  0  0
 32 26  2  0  0  0  0
 32 31  1  0  0  0  0
M  END
>  <minimizedAffinity>
-8.86749649

$$$$

 OpenBabel12271914493D

 32 35  0  0  1  0  0  0  0  0999 V2000
  -14.3860  -25.4290  -10.8940 C   0  0  0  0  0  0  0  0  0  0  0  0
  -15.1920  -25.6540   -9.7450 C   0  0  0  0  0  0  0  0  0  0  0  0
  -14.6250  -25.9070   -8.5200 C   0  0  0  0  0  0  0  0  0  0  0  0
  -13.2360  -25.9470   -8.4950 C   0  0  0  0  0  0  0  0  0  0  0  0
  -12.4290  -25.7560   -9.5360 N   0  0  0  0  0  0  0  0  0  0  0  0
  -12.9900  -25.4600  -10.7230 C   0  0  0  0  0  0  0  0  0  0  0  0
  -15.5090  -26.1460   -7.3570 C   0  0  0  0  0  0  0  0  0  0  0  0
  -16.7460  -25.5830   -7.1710 C   0  0  0  0  0  0  0  0  0  0  0  0
  -17.5730  -25.8210   -6.0590 C   0  0  0  0  0  0  0  0  0  0  0  0
  -17.0640  -26.6860   -5.0740 C   0  0  0  0  0  0  0  0  0  0  0  0
  -17.5760  -27.1170   -3.8640 N   0  0  0  0  0  0  0  0  0  0  0  0
  -18.4350  -26.9000   -3.4300 H   0  0  0  0  0  0  0  0  0  0  0  0
  -16.7480  -27.9430   -3.2370 N   0  0  0  0  0  0  0  0  0  0  0  0
  -15.6690  -28.0570   -4.0390 C   0  0  0  0  0  0  0  0  0  0  0  0
  -14.5280  -28.8830   -3.6740 C   0  0  0  0  0  0  0  0  0  0  0  0
  -15.8650  -27.2700   -5.2040 C   0  0  0  0  0  0  0  0  0  0  0  0
  -15.0540  -27.0400   -6.3440 C   0  0  0  0  0  0  0  0  0  0  0  0
  -15.1210  -25.3010  -12.0220 O   0  0  0  0  0  0  0  0  0  0  0  0
  -15.1440  -26.3350  -12.9510 C   0  0  0  0  0  0  0  0  0  0  0  0
  -13.9150  -26.3210  -13.8750 C   0  0  1  0  0  0  0  0  0  0  0  0
  -13.2990  -27.6970  -13.9070 N   0  0  0  0  0  0  0  0  0  0  0  0
  -12.9280  -27.9620  -12.9710 H   0  0  0  0  0  0  0  0  0  0  0  0
  -12.5290  -27.7930  -14.5570 H   0  0  0  0  0  0  0  0  0  0  0  0
  -14.0250  -28.4200  -14.1140 H   0  0  0  0  0  0  0  0  0  0  0  0
  -14.2010  -25.8140  -15.3120 C   0  0  0  0  0  0  0  0  0  0  0  0
  -13.0950  -24.9820  -15.9080 C   0  0  0  0  0  0  0  0  0  0  0  0
  -12.0180  -24.5820  -15.1110 C   0  0  0  0  0  0  0  0  0  0  0  0
  -10.9980  -23.7820  -15.6460 C   0  0  0  0  0  0  0  0  0  0  0  0
  -11.0280  -23.3880  -16.9760 C   0  0  0  0  0  0  0  0  0  0  0  0
   -9.6540  -22.3520  -17.7080 Br  0  0  0  0  0  0  0  0  0  0  0  0
  -12.0940  -23.8000  -17.7700 C   0  0  0  0  0  0  0  0  0  0  0  0
  -13.1210  -24.6010  -17.2310 C   0  0  0  0  0  0  0  0  0  0  0  0
  1  6  2  0  0  0  0
  1  2  1  0  0  0  0
  2  3  2  0  0  0  0
  3  4  1  0  0  0  0
  3  7  1  0  0  0  0
  5  4  2  0  0  0  0
  6  5  1  0  0  0  0
  7  8  2  0  0  0  0
  7 17  1  0  0  0  0
  8  9  1  0  0  0  0
  9 10  2  0  0  0  0
 10 11  1  0  0  0  0
 11 12  1  0  0  0  0
 11 13  1  0  0  0  0
 14 15  1  0  0  0  0
 14 13  2  0  0  0  0
 16 10  1  0  0  0  0
 16 14  1  0  0  0  0
 17 16  2  0  0  0  0
 18  1  1  0  0  0  0
 19 18  1  0  0  0  0
 20 25  1  6  0  0  0
 20 19  1  0  0  0  0
 21 20  1  0  0  0  0
 21 22  1  0  0  0  0
 23 21  1  0  0  0  0
 24 21  1  0  0  0  0
 26 25  1  0  0  0  0
 26 27  2  0  0  0  0
 28 27  1  0  0  0  0
 29 28  2  0  0  0  0
 30 29  1  0  0  0  0
 31 32  2  0  0  0  0
 31 29  1  0  0  0  0
 32 26  1  0  0  0  0
M  END
>  <minimizedAffinity>
-8.592906

$$$$

 OpenBabel12271914493D

 32 35  0  0  1  0  0  0  0  0999 V2000
  -16.5660  -28.3750  -12.7740 C   0  0  0  0  0  0  0  0  0  0  0  0
  -17.0210  -27.8690  -11.5260 C   0  0  0  0  0  0  0  0  0  0  0  0
  -18.2780  -28.1660  -11.0580 C   0  0  0  0  0  0  0  0  0  0  0  0
  -19.0600  -28.9580  -11.8890 C   0  0  0  0  0  0  0  0  0  0  0  0
  -18.6960  -29.4510  -13.0700 N   0  0  0  0  0  0  0  0  0  0  0  0
  -17.4460  -29.1980  -13.5010 C   0  0  0  0  0  0  0  0  0  0  0  0
  -18.7080  -27.6060   -9.7570 C   0  0  0  0  0  0  0  0  0  0  0  0
  -17.9590  -27.6020   -8.6070 C   0  0  0  0  0  0  0  0  0  0  0  0
  -18.3840  -27.0660   -7.3790 C   0  0  0  0  0  0  0  0  0  0  0  0
  -19.6790  -26.5180   -7.3490 C   0  0  0  0  0  0  0  0  0  0  0  0
  -20.4170  -25.9410   -6.3330 N   0  0  0  0  0  0  0  0  0  0  0  0
  -20.1790  -25.7880   -5.3880 H   0  0  0  0  0  0  0  0  0  0  0  0
  -21.6170  -25.5530   -6.7470 N   0  0  0  0  0  0  0  0  0  0  0  0
  -21.6770  -25.8820   -8.0540 C   0  0  0  0  0  0  0  0  0  0  0  0
  -22.8630  -25.6190   -8.8560 C   0  0  0  0  0  0  0  0  0  0  0  0
  -20.4530  -26.4870   -8.4430 C   0  0  0  0  0  0  0  0  0  0  0  0
  -20.0000  -27.0090   -9.6800 C   0  0  0  0  0  0  0  0  0  0  0  0
  -15.3490  -27.8930  -13.1120 O   0  0  0  0  0  0  0  0  0  0  0  0
  -15.1050  -26.5250  -13.0480 C   0  0  0  0  0  0  0  0  0  0  0  0
  -13.9190  -26.1830  -12.1310 C   0  0  1  0  0  0  0  0  0  0  0  0
  -12.7640  -25.6980  -12.9690 N   0  0  0  0  0  0  0  0  0  0  0  0
  -12.4110  -26.4530  -13.5930 H   0  0  0  0  0  0  0  0  0  0  0  0
  -11.9670  -25.3750  -12.4340 H   0  0  0  0  0  0  0  0  0  0  0  0
  -13.0750  -24.9440  -13.6230 H   0  0  0  0  0  0  0  0  0  0  0  0
  -14.2510  -25.1650  -11.0100 C   0  0  0  0  0  0  0  0  0  0  0  0
  -14.4200  -25.7780   -9.6440 C   0  0  0  0  0  0  0  0  0  0  0  0
  -14.9750  -25.0220   -8.6070 C   0  0  0  0  0  0  0  0  0  0  0  0
  -15.1080  -25.5710   -7.3230 C   0  0  0  0  0  0  0  0  0  0  0  0
  -14.7110  -26.8750   -7.0630 C   0  0  0  0  0  0  0  0  0  0  0  0
  -14.9200  -27.6270   -5.3630 Br  0  0  0  0  0  0  0  0  0  0  0  0
  -14.1730  -27.6280   -8.1010 C   0  0  0  0  0  0  0  0  0  0  0  0
  -14.0350  -27.0750   -9.3900 C   0  0  0  0  0  0  0  0  0  0  0  0
  1  2  2  0  0  0  0
  2  3  1  0  0  0  0
  3  7  1  0  0  0  0
  4  3  2  0  0  0  0
  5  4  1  0  0  0  0
  6  5  2  0  0  0  0
  6  1  1  0  0  0  0
  7 17  2  0  0  0  0
  7  8  1  0  0  0  0
  8  9  2  0  0  0  0
  9 10  1  0  0  0  0
 10 11  1  0  0  0  0
 11 12  1  0  0  0  0
 13 11  1  0  0  0  0
 14 13  2  0  0  0  0
 15 14  1  0  0  0  0
 16 14  1  0  0  0  0
 16 10  2  0  0  0  0
 17 16  1  0  0  0  0
 18 19  1  0  0  0  0
 18  1  1  0  0  0  0
 20 19  1  6  0  0  0
 20 25  1  0  0  0  0
 21 23  1  0  0  0  0
 21 20  1  0  0  0  0
 22 21  1  0  0  0  0
 24 21  1  0  0  0  0
 25 26  1  0  0  0  0
 26 32  2  0  0  0  0
 26 27  1  0  0  0  0
 27 28  2  0  0  0  0
 28 29  1  0  0  0  0
 29 30  1  0  0  0  0
 31 29  2  0  0  0  0
 32 31  1  0  0  0  0
M  END
>  <minimizedAffinity>
-8.50374222

$$$$

 OpenBabel12271914493D

 32 35  0  0  1  0  0  0  0  0999 V2000
  -22.2050  -25.8200   -7.2490 C   0  0  0  0  0  0  0  0  0  0  0  0
  -20.8230  -25.8760   -6.9250 C   0  0  0  0  0  0  0  0  0  0  0  0
  -19.8860  -26.2060   -7.8740 C   0  0  0  0  0  0  0  0  0  0  0  0
  -20.3840  -26.4970   -9.1380 C   0  0  0  0  0  0  0  0  0  0  0  0
  -21.6650  -26.4730   -9.4990 N   0  0  0  0  0  0  0  0  0  0  0  0
  -22.5730  -26.1010   -8.5770 C   0  0  0  0  0  0  0  0  0  0  0  0
  -18.4590  -26.2600   -7.4830 C   0  0  0  0  0  0  0  0  0  0  0  0
  -17.9900  -26.5820   -6.2340 C   0  0  0  0  0  0  0  0  0  0  0  0
  -16.6290  -26.6290   -5.8800 C   0  0  0  0  0  0  0  0  0  0  0  0
  -15.7080  -26.2990   -6.8900 C   0  0  0  0  0  0  0  0  0  0  0  0
  -14.3280  -26.2140   -6.8930 N   0  0  0  0  0  0  0  0  0  0  0  0
  -13.6840  -26.3760   -6.1640 H   0  0  0  0  0  0  0  0  0  0  0  0
  -13.8520  -25.8590   -8.0810 N   0  0  0  0  0  0  0  0  0  0  0  0
  -14.9320  -25.7000   -8.8740 C   0  0  0  0  0  0  0  0  0  0  0  0
  -14.8060  -25.2960  -10.2660 C   0  0  0  0  0  0  0  0  0  0  0  0
  -16.1080  -25.9820   -8.1290 C   0  0  0  0  0  0  0  0  0  0  0  0
  -17.4820  -25.9650   -8.4770 C   0  0  0  0  0  0  0  0  0  0  0  0
  -22.9780  -25.5800   -6.1650 O   0  0  0  0  0  0  0  0  0  0  0  0
  -24.3360  -25.8810   -6.2050 C   0  0  0  0  0  0  0  0  0  0  0  0
  -25.2010  -24.7680   -5.5920 C   0  0  1  0  0  0  0  0  0  0  0  0
  -26.0760  -24.1670   -6.6630 N   0  0  0  0  0  0  0  0  0  0  0  0
  -25.5020  -23.6910   -7.3890 H   0  0  0  0  0  0  0  0  0  0  0  0
  -26.7360  -23.4790   -6.3240 H   0  0  0  0  0  0  0  0  0  0  0  0
  -26.5860  -24.9160   -7.1830 H   0  0  0  0  0  0  0  0  0  0  0  0
  -26.0520  -25.2180   -4.3760 C   0  0  0  0  0  0  0  0  0  0  0  0
  -26.2340  -24.1590   -3.3200 C   0  0  0  0  0  0  0  0  0  0  0  0
  -27.2840  -24.2650   -2.4030 C   0  0  0  0  0  0  0  0  0  0  0  0
  -27.4840  -23.2700   -1.4350 C   0  0  0  0  0  0  0  0  0  0  0  0
  -26.6350  -22.1750   -1.3570 C   0  0  0  0  0  0  0  0  0  0  0  0
  -26.8710  -20.8610   -0.0460 Br  0  0  0  0  0  0  0  0  0  0  0  0
  -25.5830  -22.0800   -2.2620 C   0  0  0  0  0  0  0  0  0  0  0  0
  -25.3850  -23.0780   -3.2370 C   0  0  0  0  0  0  0  0  0  0  0  0
  1  2  1  0  0  0  0
  1 18  1  0  0  0  0
  3  7  1  0  0  0  0
  3  2  2  0  0  0  0
  4  3  1  0  0  0  0
  5  4  2  0  0  0  0
  5  6  1  0  0  0  0
  6  1  2  0  0  0  0
  7  8  2  0  0  0  0
  8  9  1  0  0  0  0
 10  9  2  0  0  0  0
 11 10  1  0  0  0  0
 11 12  1  0  0  0  0
 13 11  1  0  0  0  0
 14 16  1  0  0  0  0
 14 13  2  0  0  0  0
 15 14  1  0  0  0  0
 16 10  1  0  0  0  0
 17 16  2  0  0  0  0
 17  7  1  0  0  0  0
 19 18  1  0  0  0  0
 20 19  1  6  0  0  0
 20 25  1  0  0  0  0
 21 23  1  0  0  0  0
 21 20  1  0  0  0  0
 22 21  1  0  0  0  0
 24 21  1  0  0  0  0
 25 26  1  0  0  0  0
 26 32  2  0  0  0  0
 26 27  1  0  0  0  0
 27 28  2  0  0  0  0
 28 29  1  0  0  0  0
 29 30  1  0  0  0  0
 31 29  2  0  0  0  0
 32 31  1  0  0  0  0
M  END
>  <minimizedAffinity>
-8.11603069

$$$$

 OpenBabel12271914493D

 32 35  0  0  1  0  0  0  0  0999 V2000
  -14.4140  -25.5980  -11.3690 C   0  0  0  0  0  0  0  0  0  0  0  0
  -15.0520  -25.8860  -10.1320 C   0  0  0  0  0  0  0  0  0  0  0  0
  -14.3290  -25.9790   -8.9670 C   0  0  0  0  0  0  0  0  0  0  0  0
  -12.9570  -25.7980   -9.0930 C   0  0  0  0  0  0  0  0  0  0  0  0
  -12.3020  -25.5380  -10.2220 N   0  0  0  0  0  0  0  0  0  0  0  0
  -13.0220  -25.3990  -11.3510 C   0  0  0  0  0  0  0  0  0  0  0  0
  -15.0390  -26.2910   -7.7070 C   0  0  0  0  0  0  0  0  0  0  0  0
  -14.4880  -26.9190   -6.6190 C   0  0  0  0  0  0  0  0  0  0  0  0
  -15.1790  -27.2090   -5.4290 C   0  0  0  0  0  0  0  0  0  0  0  0
  -16.5340  -26.8350   -5.3840 C   0  0  0  0  0  0  0  0  0  0  0  0
  -17.5050  -26.9830   -4.4110 N   0  0  0  0  0  0  0  0  0  0  0  0
  -17.4430  -27.3930   -3.5160 H   0  0  0  0  0  0  0  0  0  0  0  0
  -18.6730  -26.4800   -4.7900 N   0  0  0  0  0  0  0  0  0  0  0  0
  -18.4760  -25.9970   -6.0350 C   0  0  0  0  0  0  0  0  0  0  0  0
  -19.5490  -25.3710   -6.7920 C   0  0  0  0  0  0  0  0  0  0  0  0
  -17.1250  -26.2130   -6.4140 C   0  0  0  0  0  0  0  0  0  0  0  0
  -16.4070  -25.9050   -7.5970 C   0  0  0  0  0  0  0  0  0  0  0  0
  -15.2710  -25.6490  -12.4140 O   0  0  0  0  0  0  0  0  0  0  0  0
  -15.5210  -26.8640  -13.0430 C   0  0  0  0  0  0  0  0  0  0  0  0
  -14.6980  -27.0380  -14.3290 C   0  0  1  0  0  0  0  0  0  0  0  0
  -14.9440  -28.4130  -14.8970 N   0  0  0  0  0  0  0  0  0  0  0  0
  -14.5940  -29.1520  -14.2530 H   0  0  0  0  0  0  0  0  0  0  0  0
  -14.4990  -28.5800  -15.7920 H   0  0  0  0  0  0  0  0  0  0  0  0
  -15.9690  -28.6000  -14.9760 H   0  0  0  0  0  0  0  0  0  0  0  0
  -14.9490  -25.9470  -15.4020 C   0  0  0  0  0  0  0  0  0  0  0  0
  -13.7140  -25.1960  -15.8250 C   0  0  0  0  0  0  0  0  0  0  0  0
  -13.6050  -24.7190  -17.1350 C   0  0  0  0  0  0  0  0  0  0  0  0
  -12.4470  -24.0460  -17.5510 C   0  0  0  0  0  0  0  0  0  0  0  0
  -11.3980  -23.8250  -16.6690 C   0  0  0  0  0  0  0  0  0  0  0  0
   -9.8650  -22.8960  -17.2030 Br  0  0  0  0  0  0  0  0  0  0  0  0
  -11.5160  -24.2880  -15.3630 C   0  0  0  0  0  0  0  0  0  0  0  0
  -12.6790  -24.9690  -14.9460 C   0  0  0  0  0  0  0  0  0  0  0  0
  1  6  2  0  0  0  0
  1  2  1  0  0  0  0
  2  3  2  0  0  0  0
  3  7  1  0  0  0  0
  4  3  1  0  0  0  0
  5  4  2  0  0  0  0
  6  5  1  0  0  0  0
  7 17  2  0  0  0  0
  7  8  1  0  0  0  0
  8  9  2  0  0  0  0
  9 10  1  0  0  0  0
 10 11  1  0  0  0  0
 11 12  1  0  0  0  0
 13 11  1  0  0  0  0
 14 13  2  0  0  0  0
 15 14  1  0  0  0  0
 16 14  1  0  0  0  0
 16 10  2  0  0  0  0
 17 16  1  0  0  0  0
 18  1  1  0  0  0  0
 19 18  1  0  0  0  0
 20 25  1  6  0  0  0
 20 19  1  0  0  0  0
 21 20  1  0  0  0  0
 21 22  1  0  0  0  0
 23 21  1  0  0  0  0
 24 21  1  0  0  0  0
 26 25  1  0  0  0  0
 26 32  2  0  0  0  0
 27 26  1  0  0  0  0
 28 27  2  0  0  0  0
 28 29  1  0  0  0  0
 29 31  2  0  0  0  0
 30 29  1  0  0  0  0
 31 32  1  0  0  0  0
M  END
>  <minimizedAffinity>
-8.10234737

$$$$

 OpenBabel12271914493D

 32 35  0  0  1  0  0  0  0  0999 V2000
  -14.4700  -25.7100  -11.3800 C   0  0  0  0  0  0  0  0  0  0  0  0
  -15.1130  -25.9720  -10.1410 C   0  0  0  0  0  0  0  0  0  0  0  0
  -14.4010  -26.0030   -8.9660 C   0  0  0  0  0  0  0  0  0  0  0  0
  -13.0340  -25.7870   -9.0830 C   0  0  0  0  0  0  0  0  0  0  0  0
  -12.3740  -25.5480  -10.2140 N   0  0  0  0  0  0  0  0  0  0  0  0
  -13.0840  -25.4700  -11.3550 C   0  0  0  0  0  0  0  0  0  0  0  0
  -15.1170  -26.2920   -7.7030 C   0  0  0  0  0  0  0  0  0  0  0  0
  -14.5670  -26.8890   -6.5970 C   0  0  0  0  0  0  0  0  0  0  0  0
  -15.2630  -27.1560   -5.4040 C   0  0  0  0  0  0  0  0  0  0  0  0
  -16.6210  -26.7920   -5.3770 C   0  0  0  0  0  0  0  0  0  0  0  0
  -17.5970  -26.9260   -4.4060 N   0  0  0  0  0  0  0  0  0  0  0  0
  -17.5370  -27.3130   -3.5010 H   0  0  0  0  0  0  0  0  0  0  0  0
  -18.7670  -26.4410   -4.8050 N   0  0  0  0  0  0  0  0  0  0  0  0
  -18.5660  -25.9870   -6.0590 C   0  0  0  0  0  0  0  0  0  0  0  0
  -19.6400  -25.3890   -6.8380 C   0  0  0  0  0  0  0  0  0  0  0  0
  -17.2110  -26.2000   -6.4250 C   0  0  0  0  0  0  0  0  0  0  0  0
  -16.4890  -25.9150   -7.6110 C   0  0  0  0  0  0  0  0  0  0  0  0
  -15.3130  -25.8230  -12.4320 O   0  0  0  0  0  0  0  0  0  0  0  0
  -15.2980  -26.9760  -13.2080 C   0  0  0  0  0  0  0  0  0  0  0  0
  -16.6450  -27.7180  -13.1820 C   0  0  1  0  0  0  0  0  0  0  0  0
  -16.5590  -28.9400  -14.0600 N   0  0  0  0  0  0  0  0  0  0  0  0
  -16.4190  -28.6750  -15.0570 H   0  0  0  0  0  0  0  0  0  0  0  0
  -17.3820  -29.5300  -14.0350 H   0  0  0  0  0  0  0  0  0  0  0  0
  -15.7150  -29.5070  -13.8200 H   0  0  0  0  0  0  0  0  0  0  0  0
  -17.1390  -28.0960  -11.7610 C   0  0  0  0  0  0  0  0  0  0  0  0
  -18.3990  -27.3900  -11.3340 C   0  0  0  0  0  0  0  0  0  0  0  0
  -18.7670  -26.1890  -11.9490 C   0  0  0  0  0  0  0  0  0  0  0  0
  -19.9210  -25.5060  -11.5390 C   0  0  0  0  0  0  0  0  0  0  0  0
  -20.7270  -26.0150  -10.5310 C   0  0  0  0  0  0  0  0  0  0  0  0
  -22.2880  -25.1300  -10.0020 Br  0  0  0  0  0  0  0  0  0  0  0  0
  -20.3660  -27.2170   -9.9310 C   0  0  0  0  0  0  0  0  0  0  0  0
  -19.2040  -27.9020  -10.3400 C   0  0  0  0  0  0  0  0  0  0  0  0
  1  6  2  0  0  0  0
  1  2  1  0  0  0  0
  2  3  2  0  0  0  0
  3  7  1  0  0  0  0
  4  3  1  0  0  0  0
  5  4  2  0  0  0  0
  6  5  1  0  0  0  0
  7 17  2  0  0  0  0
  7  8  1  0  0  0  0
  8  9  2  0  0  0  0
  9 10  1  0  0  0  0
 10 11  1  0  0  0  0
 11 12  1  0  0  0  0
 13 11  1  0  0  0  0
 14 13  2  0  0  0  0
 15 14  1  0  0  0  0
 16 14  1  0  0  0  0
 16 10  2  0  0  0  0
 17 16  1  0  0  0  0
 18  1  1  0  0  0  0
 19 18  1  0  0  0  0
 20 19  1  1  0  0  0
 20 25  1  0  0  0  0
 21 23  1  0  0  0  0
 21 24  1  0  0  0  0
 21 20  1  0  0  0  0
 22 21  1  0  0  0  0
 25 26  1  0  0  0  0
 26 32  2  0  0  0  0
 27 28  2  0  0  0  0
 27 26  1  0  0  0  0
 28 29  1  0  0  0  0
 29 30  1  0  0  0  0
 29 31  2  0  0  0  0
 32 31  1  0  0  0  0
M  END
>  <minimizedAffinity>
-8.05147648

$$$$

 OpenBabel12271914493D

 32 35  0  0  1  0  0  0  0  0999 V2000
  -20.3350  -26.0870   -8.8340 C   0  0  0  0  0  0  0  0  0  0  0  0
  -19.1490  -26.3080   -9.5850 C   0  0  0  0  0  0  0  0  0  0  0  0
  -19.1300  -26.1270  -10.9470 C   0  0  0  0  0  0  0  0  0  0  0  0
  -20.3350  -25.7440  -11.5220 C   0  0  0  0  0  0  0  0  0  0  0  0
  -21.4790  -25.5320  -10.8750 N   0  0  0  0  0  0  0  0  0  0  0  0
  -21.4790  -25.6630   -9.5340 C   0  0  0  0  0  0  0  0  0  0  0  0
  -17.8730  -26.3820  -11.6850 C   0  0  0  0  0  0  0  0  0  0  0  0
  -16.7600  -25.5790  -11.6590 C   0  0  0  0  0  0  0  0  0  0  0  0
  -15.5730  -25.8360  -12.3680 C   0  0  0  0  0  0  0  0  0  0  0  0
  -15.5590  -26.9940  -13.1670 C   0  0  0  0  0  0  0  0  0  0  0  0
  -14.5960  -27.5320  -14.0010 N   0  0  0  0  0  0  0  0  0  0  0  0
  -13.6900  -27.2050  -14.2110 H   0  0  0  0  0  0  0  0  0  0  0  0
  -15.0070  -28.6560  -14.5760 N   0  0  0  0  0  0  0  0  0  0  0  0
  -16.2610  -28.8620  -14.1230 C   0  0  0  0  0  0  0  0  0  0  0  0
  -17.0500  -30.0070  -14.5490 C   0  0  0  0  0  0  0  0  0  0  0  0
  -16.6140  -27.8180  -13.2270 C   0  0  0  0  0  0  0  0  0  0  0  0
  -17.7940  -27.5580  -12.4860 C   0  0  0  0  0  0  0  0  0  0  0  0
  -20.1860  -26.4150   -7.5300 O   0  0  0  0  0  0  0  0  0  0  0  0
  -18.9630  -26.8930   -7.0730 C   0  0  0  0  0  0  0  0  0  0  0  0
  -18.4950  -26.1780   -5.7950 C   0  0  1  0  0  0  0  0  0  0  0  0
  -19.4430  -26.4990   -4.6670 N   0  0  0  0  0  0  0  0  0  0  0  0
  -20.3920  -26.1160   -4.8560 H   0  0  0  0  0  0  0  0  0  0  0  0
  -19.1600  -26.1300   -3.7680 H   0  0  0  0  0  0  0  0  0  0  0  0
  -19.5880  -27.5310   -4.5930 H   0  0  0  0  0  0  0  0  0  0  0  0
  -17.0310  -26.4890   -5.3880 C   0  0  0  0  0  0  0  0  0  0  0  0
  -16.0250  -26.2900   -6.4910 C   0  0  0  0  0  0  0  0  0  0  0  0
  -15.0450  -27.2610   -6.7220 C   0  0  0  0  0  0  0  0  0  0  0  0
  -14.0830  -27.0730   -7.7250 C   0  0  0  0  0  0  0  0  0  0  0  0
  -14.0960  -25.9340   -8.5170 C   0  0  0  0  0  0  0  0  0  0  0  0
  -12.8390  -25.6930   -9.8820 Br  0  0  0  0  0  0  0  0  0  0  0  0
  -15.0800  -24.9770   -8.2950 C   0  0  0  0  0  0  0  0  0  0  0  0
  -16.0450  -25.1640   -7.2830 C   0  0  0  0  0  0  0  0  0  0  0  0
  1 18  1  0  0  0  0
  2  1  2  0  0  0  0
  3  2  1  0  0  0  0
  4  3  2  0  0  0  0
  4  5  1  0  0  0  0
  5  6  2  0  0  0  0
  6  1  1  0  0  0  0
  7  8  1  0  0  0  0
  7  3  1  0  0  0  0
  9  8  2  0  0  0  0
 10  9  1  0  0  0  0
 11 10  1  0  0  0  0
 12 11  1  0  0  0  0
 13 14  2  0  0  0  0
 13 11  1  0  0  0  0
 14 16  1  0  0  0  0
 15 14  1  0  0  0  0
 16 10  2  0  0  0  0
 16 17  1  0  0  0  0
 17  7  2  0  0  0  0
 18 19  1  0  0  0  0
 20 19  1  6  0  0  0
 20 25  1  0  0  0  0
 20 21  1  0  0  0  0
 21 24  1  0  0  0  0
 21 23  1  0  0  0  0
 22 21  1  0  0  0  0
 26 25  1  0  0  0  0
 27 26  1  0  0  0  0
 28 27  2  0  0  0  0
 29 31  2  0  0  0  0
 29 28  1  0  0  0  0
 30 29  1  0  0  0  0
 31 32  1  0  0  0  0
 32 26  2  0  0  0  0
M  END
>  <minimizedAffinity>
-7.81872892

$$$$

 OpenBabel12271914493D

 32 35  0  0  1  0  0  0  0  0999 V2000
  -20.3190  -26.3200   -8.5910 C   0  0  0  0  0  0  0  0  0  0  0  0
  -18.9000  -26.3570   -8.6480 C   0  0  0  0  0  0  0  0  0  0  0  0
  -18.1390  -26.1000   -7.5330 C   0  0  0  0  0  0  0  0  0  0  0  0
  -18.8460  -25.7840   -6.3800 C   0  0  0  0  0  0  0  0  0  0  0  0
  -20.1710  -25.7220   -6.2660 N   0  0  0  0  0  0  0  0  0  0  0  0
  -20.9120  -26.0240   -7.3490 C   0  0  0  0  0  0  0  0  0  0  0  0
  -16.6640  -26.1410   -7.6490 C   0  0  0  0  0  0  0  0  0  0  0  0
  -15.7940  -26.3980   -6.6200 C   0  0  0  0  0  0  0  0  0  0  0  0
  -14.3930  -26.4330   -6.7470 C   0  0  0  0  0  0  0  0  0  0  0  0
  -13.8750  -26.1620   -8.0270 C   0  0  0  0  0  0  0  0  0  0  0  0
  -12.5790  -26.0850   -8.5030 N   0  0  0  0  0  0  0  0  0  0  0  0
  -11.7240  -26.2120   -8.0290 H   0  0  0  0  0  0  0  0  0  0  0  0
  -12.5410  -25.7980   -9.7990 N   0  0  0  0  0  0  0  0  0  0  0  0
  -13.8270  -25.6750  -10.1840 C   0  0  0  0  0  0  0  0  0  0  0  0
  -14.1880  -25.3470  -11.5550 C   0  0  0  0  0  0  0  0  0  0  0  0
  -14.6760  -25.9110   -9.0700 C   0  0  0  0  0  0  0  0  0  0  0  0
  -16.0870  -25.9050   -8.9300 C   0  0  0  0  0  0  0  0  0  0  0  0
  -20.8880  -26.4980   -9.8040 O   0  0  0  0  0  0  0  0  0  0  0  0
  -21.6060  -27.6590  -10.0670 C   0  0  0  0  0  0  0  0  0  0  0  0
  -20.6990  -28.8250  -10.4940 C   0  0  1  0  0  0  0  0  0  0  0  0
  -21.2060  -30.1040   -9.8760 N   0  0  0  0  0  0  0  0  0  0  0  0
  -21.1330  -30.0730   -8.8380 H   0  0  0  0  0  0  0  0  0  0  0  0
  -20.7090  -30.9350  -10.1730 H   0  0  0  0  0  0  0  0  0  0  0  0
  -22.2270  -30.2220  -10.0620 H   0  0  0  0  0  0  0  0  0  0  0  0
  -20.5370  -28.9820  -12.0280 C   0  0  0  0  0  0  0  0  0  0  0  0
  -19.1230  -28.8220  -12.5220 C   0  0  0  0  0  0  0  0  0  0  0  0
  -18.3340  -27.7710  -12.0450 C   0  0  0  0  0  0  0  0  0  0  0  0
  -17.0270  -27.5930  -12.5220 C   0  0  0  0  0  0  0  0  0  0  0  0
  -16.4870  -28.4640  -13.4570 C   0  0  0  0  0  0  0  0  0  0  0  0
  -14.7320  -28.2560  -14.0710 Br  0  0  0  0  0  0  0  0  0  0  0  0
  -17.2700  -29.5170  -13.9190 C   0  0  0  0  0  0  0  0  0  0  0  0
  -18.5850  -29.6930  -13.4430 C   0  0  0  0  0  0  0  0  0  0  0  0
  1  6  1  0  0  0  0
  2  1  2  0  0  0  0
  2  3  1  0  0  0  0
  3  4  2  0  0  0  0
  4  5  1  0  0  0  0
  6  5  2  0  0  0  0
  7  3  1  0  0  0  0
  7  8  2  0  0  0  0
  9  8  1  0  0  0  0
 10  9  2  0  0  0  0
 11 12  1  0  0  0  0
 11 10  1  0  0  0  0
 13 11  1  0  0  0  0
 14 13  2  0  0  0  0
 14 16  1  0  0  0  0
 15 14  1  0  0  0  0
 16 17  2  0  0  0  0
 16 10  1  0  0  0  0
 17  7  1  0  0  0  0
 18  1  1  0  0  0  0
 19 18  1  0  0  0  0
 20 25  1  6  0  0  0
 20 19  1  0  0  0  0
 20 21  1  0  0  0  0
 21 22  1  0  0  0  0
 23 21  1  0  0  0  0
 24 21  1  0  0  0  0
 26 27  1  0  0  0  0
 26 25  1  0  0  0  0
 28 27  2  0  0  0  0
 29 28  1  0  0  0  0
 30 29  1  0  0  0  0
 31 29  2  0  0  0  0
 31 32  1  0  0  0  0
 32 26  2  0  0  0  0
M  END
>  <minimizedAffinity>
-7.65869284

$$$$

 OpenBabel12271914493D

 32 35  0  0  1  0  0  0  0  0999 V2000
  -25.1450  -25.7910   -6.1320 C   0  0  0  0  0  0  0  0  0  0  0  0
  -25.6110  -25.1770   -4.9380 C   0  0  0  0  0  0  0  0  0  0  0  0
  -26.7240  -25.6500   -4.2860 C   0  0  0  0  0  0  0  0  0  0  0  0
  -27.3580  -26.7340   -4.8820 C   0  0  0  0  0  0  0  0  0  0  0  0
  -26.9770  -27.3440   -6.0020 N   0  0  0  0  0  0  0  0  0  0  0  0
  -25.8580  -26.9070   -6.6100 C   0  0  0  0  0  0  0  0  0  0  0  0
  -27.1740  -24.9680   -3.0520 C   0  0  0  0  0  0  0  0  0  0  0  0
  -28.3380  -25.2350   -2.3760 C   0  0  0  0  0  0  0  0  0  0  0  0
  -28.7510  -24.5760   -1.2050 C   0  0  0  0  0  0  0  0  0  0  0  0
  -27.9010  -23.5640   -0.7230 C   0  0  0  0  0  0  0  0  0  0  0  0
  -27.9980  -22.7100    0.3600 N   0  0  0  0  0  0  0  0  0  0  0  0
  -28.7060  -22.6350    1.0430 H   0  0  0  0  0  0  0  0  0  0  0  0
  -26.9550  -21.8930    0.4460 N   0  0  0  0  0  0  0  0  0  0  0  0
  -26.1600  -22.2050   -0.5970 C   0  0  0  0  0  0  0  0  0  0  0  0
  -24.9090  -21.5020   -0.8440 C   0  0  0  0  0  0  0  0  0  0  0  0
  -26.7480  -23.2640   -1.3370 C   0  0  0  0  0  0  0  0  0  0  0  0
  -26.3340  -23.9560   -2.5030 C   0  0  0  0  0  0  0  0  0  0  0  0
  -24.1040  -25.1250   -6.6810 O   0  0  0  0  0  0  0  0  0  0  0  0
  -23.4430  -25.6630   -7.7800 C   0  0  0  0  0  0  0  0  0  0  0  0
  -21.9760  -25.2080   -7.8620 C   0  0  1  0  0  0  0  0  0  0  0  0
  -21.9040  -23.7160   -7.6610 N   0  0  0  0  0  0  0  0  0  0  0  0
  -22.3840  -23.2110   -8.4340 H   0  0  0  0  0  0  0  0  0  0  0  0
  -20.9620  -23.3460   -7.6200 H   0  0  0  0  0  0  0  0  0  0  0  0
  -22.4280  -23.4350   -6.8010 H   0  0  0  0  0  0  0  0  0  0  0  0
  -21.0250  -25.9420   -6.8810 C   0  0  0  0  0  0  0  0  0  0  0  0
  -19.5610  -25.7850   -7.2030 C   0  0  0  0  0  0  0  0  0  0  0  0
  -18.7280  -25.0810   -6.3280 C   0  0  0  0  0  0  0  0  0  0  0  0
  -17.3710  -24.9020   -6.6310 C   0  0  0  0  0  0  0  0  0  0  0  0
  -16.8260  -25.4330   -7.7920 C   0  0  0  0  0  0  0  0  0  0  0  0
  -15.0090  -25.2300   -8.1870 Br  0  0  0  0  0  0  0  0  0  0  0  0
  -17.6540  -26.1450   -8.6530 C   0  0  0  0  0  0  0  0  0  0  0  0
  -19.0200  -26.3210   -8.3500 C   0  0  0  0  0  0  0  0  0  0  0  0
  1  2  1  0  0  0  0
  2  3  2  0  0  0  0
  3  7  1  0  0  0  0
  4  3  1  0  0  0  0
  5  4  2  0  0  0  0
  6  1  2  0  0  0  0
  6  5  1  0  0  0  0
  7 17  2  0  0  0  0
  7  8  1  0  0  0  0
  8  9  2  0  0  0  0
  9 10  1  0  0  0  0
 10 11  1  0  0  0  0
 11 13  1  0  0  0  0
 11 12  1  0  0  0  0
 14 13  2  0  0  0  0
 15 14  1  0  0  0  0
 16 10  2  0  0  0  0
 16 14  1  0  0  0  0
 17 16  1  0  0  0  0
 18  1  1  0  0  0  0
 19 18  1  0  0  0  0
 20 19  1  1  0  0  0
 20 21  1  0  0  0  0
 20 25  1  0  0  0  0
 21 23  1  0  0  0  0
 21 24  1  0  0  0  0
 22 21  1  0  0  0  0
 26 25  1  0  0  0  0
 26 27  2  0  0  0  0
 28 27  1  0  0  0  0
 29 28  2  0  0  0  0
 30 29  1  0  0  0  0
 31 32  2  0  0  0  0
 31 29  1  0  0  0  0
 32 26  1  0  0  0  0
M  END
>  <minimizedAffinity>
-7.61887026

$$$$
