
 OpenBabel12271914503D

 32 35  0  0  1  0  0  0  0  0999 V2000
  -13.7330  -25.9030   -9.4040 C   0  0  1  0  0  0  0  0  0  0  0  0
  -12.2840  -25.7540   -9.2140 N   0  0  0  0  0  0  0  0  0  0  0  0
  -11.8140  -26.2980   -9.9250 H   0  0  0  0  0  0  0  0  0  0  0  0
  -11.9580  -26.0810   -8.2860 H   0  0  0  0  0  0  0  0  0  0  0  0
  -12.0330  -24.7530   -9.3700 H   0  0  0  0  0  0  0  0  0  0  0  0
  -14.5530  -25.0750   -8.4300 C   0  0  0  0  0  0  0  0  0  0  0  0
  -15.0610  -25.8850   -7.3080 C   0  0  0  0  0  0  0  0  0  0  0  0
  -16.3160  -25.7350   -6.7290 C   0  0  0  0  0  0  0  0  0  0  0  0
  -17.3810  -24.8780   -6.9710 C   0  0  0  0  0  0  0  0  0  0  0  0
  -18.5230  -24.9930   -6.1720 C   0  0  0  0  0  0  0  0  0  0  0  0
  -18.5990  -25.9380   -5.1590 C   0  0  0  0  0  0  0  0  0  0  0  0
  -17.5070  -26.8050   -4.9300 C   0  0  0  0  0  0  0  0  0  0  0  0
  -16.3800  -26.6790   -5.7370 C   0  0  0  0  0  0  0  0  0  0  0  0
  -15.1880  -27.4120   -5.6980 N   0  0  0  0  0  0  0  0  0  0  0  0
  -14.9400  -28.1500   -5.0690 H   0  0  0  0  0  0  0  0  0  0  0  0
  -14.3870  -26.9050   -6.6900 C   0  0  0  0  0  0  0  0  0  0  0  0
  -14.0790  -25.3050  -10.7820 C   0  0  0  0  0  0  0  0  0  0  0  0
  -15.4690  -25.6920  -11.1720 O   0  0  0  0  0  0  0  0  0  0  0  0
  -16.3730  -26.5960  -11.3980 C   0  0  0  0  0  0  0  0  0  0  0  0
  -17.5610  -26.1480  -10.8340 C   0  0  0  0  0  0  0  0  0  0  0  0
  -18.7570  -26.8710  -10.9130 C   0  0  0  0  0  0  0  0  0  0  0  0
  -18.7020  -28.0500  -11.5790 C   0  0  0  0  0  0  0  0  0  0  0  0
  -17.5540  -28.5350  -12.1480 N   0  0  0  0  0  0  0  0  0  0  0  0
  -16.3810  -27.7830  -12.0320 C   0  0  0  0  0  0  0  0  0  0  0  0
  -19.9890  -26.3590  -10.3040 C   0  0  0  0  0  0  0  0  0  0  0  0
  -20.3250  -26.4530   -9.0140 C   0  0  0  0  0  0  0  0  0  0  0  0
  -21.5730  -25.9250   -8.4580 C   0  0  0  0  0  0  0  0  0  0  0  0
  -22.4920  -25.3130   -9.3320 C   0  0  0  0  0  0  0  0  0  0  0  0
  -23.6600  -24.8140   -8.8450 C   0  0  0  0  0  0  0  0  0  0  0  0
  -23.9570  -24.8940   -7.5400 N   0  0  0  0  0  0  0  0  0  0  0  0
  -23.0740  -25.4800   -6.6970 C   0  0  0  0  0  0  0  0  0  0  0  0
  -21.9030  -25.9940   -7.1090 C   0  0  0  0  0  0  0  0  0  0  0  0
  1 17  1  6  0  0  0
  1  2  1  0  0  0  0
  1  6  1  0  0  0  0
  2  4  1  0  0  0  0
  3  2  1  0  0  0  0
  5  2  1  0  0  0  0
  6  7  1  0  0  0  0
  7  8  1  0  0  0  0
  7 16  2  0  0  0  0
  8 13  1  0  0  0  0
  9  8  2  0  0  0  0
  9 10  1  0  0  0  0
 10 11  2  0  0  0  0
 11 12  1  0  0  0  0
 13 14  1  0  0  0  0
 13 12  2  0  0  0  0
 14 15  1  0  0  0  0
 16 14  1  0  0  0  0
 18 17  1  0  0  0  0
 19 18  1  0  0  0  0
 19 20  2  0  0  0  0
 21 20  1  0  0  0  0
 21 25  1  0  0  0  0
 22 21  2  0  0  0  0
 23 24  2  0  0  0  0
 23 22  1  0  0  0  0
 24 19  1  0  0  0  0
 25 26  2  0  0  0  0
 26 27  1  0  0  0  0
 27 32  2  0  0  0  0
 28 29  2  0  0  0  0
 28 27  1  0  0  0  0
 29 30  1  0  0  0  0
 30 31  2  0  0  0  0
 32 31  1  0  0  0  0
M  END
>  <minimizedAffinity>
-8.43940735

$$$$

 OpenBabel12271914503D

 32 35  0  0  1  0  0  0  0  0999 V2000
  -20.8770  -25.8900   -7.1720 C   0  0  1  0  0  0  0  0  0  0  0  0
  -20.6500  -26.7640   -8.3310 N   0  0  0  0  0  0  0  0  0  0  0  0
  -21.5030  -27.2760   -8.5130 H   0  0  0  0  0  0  0  0  0  0  0  0
  -19.8850  -27.4480   -8.1820 H   0  0  0  0  0  0  0  0  0  0  0  0
  -20.4630  -26.1640   -9.1640 H   0  0  0  0  0  0  0  0  0  0  0  0
  -19.6810  -25.0150   -6.8380 C   0  0  0  0  0  0  0  0  0  0  0  0
  -18.6610  -25.7460   -6.0670 C   0  0  0  0  0  0  0  0  0  0  0  0
  -17.3430  -25.9280   -6.4720 C   0  0  0  0  0  0  0  0  0  0  0  0
  -16.6300  -25.5410   -7.5990 C   0  0  0  0  0  0  0  0  0  0  0  0
  -15.2850  -25.9110   -7.6940 C   0  0  0  0  0  0  0  0  0  0  0  0
  -14.6690  -26.6480   -6.6930 C   0  0  0  0  0  0  0  0  0  0  0  0
  -15.4090  -27.0290   -5.5520 C   0  0  0  0  0  0  0  0  0  0  0  0
  -16.7450  -26.6500   -5.4700 C   0  0  0  0  0  0  0  0  0  0  0  0
  -17.6700  -26.9110   -4.4530 N   0  0  0  0  0  0  0  0  0  0  0  0
  -17.5270  -27.4300   -3.6090 H   0  0  0  0  0  0  0  0  0  0  0  0
  -18.8520  -26.3320   -4.8430 C   0  0  0  0  0  0  0  0  0  0  0  0
  -21.9750  -24.8820   -7.5660 C   0  0  0  0  0  0  0  0  0  0  0  0
  -23.1660  -25.0510   -6.6790 O   0  0  0  0  0  0  0  0  0  0  0  0
  -24.2520  -25.6820   -6.3470 C   0  0  0  0  0  0  0  0  0  0  0  0
  -24.8420  -24.9760   -5.3060 C   0  0  0  0  0  0  0  0  0  0  0  0
  -26.0500  -25.3640   -4.7170 C   0  0  0  0  0  0  0  0  0  0  0  0
  -26.6310  -26.4820   -5.2200 C   0  0  0  0  0  0  0  0  0  0  0  0
  -26.0850  -27.2130   -6.2410 N   0  0  0  0  0  0  0  0  0  0  0  0
  -24.8690  -26.7920   -6.7900 C   0  0  0  0  0  0  0  0  0  0  0  0
  -26.6390  -24.5880   -3.6200 C   0  0  0  0  0  0  0  0  0  0  0  0
  -26.0240  -23.6330   -2.9170 C   0  0  0  0  0  0  0  0  0  0  0  0
  -26.6600  -22.8890   -1.8270 C   0  0  0  0  0  0  0  0  0  0  0  0
  -27.9160  -23.3220   -1.3610 C   0  0  0  0  0  0  0  0  0  0  0  0
  -28.5310  -22.6520   -0.3500 C   0  0  0  0  0  0  0  0  0  0  0  0
  -27.9610  -21.5790    0.2170 N   0  0  0  0  0  0  0  0  0  0  0  0
  -26.7530  -21.1590   -0.2300 C   0  0  0  0  0  0  0  0  0  0  0  0
  -26.0900  -21.7730   -1.2240 C   0  0  0  0  0  0  0  0  0  0  0  0
  1 17  1  6  0  0  0
  1  6  1  0  0  0  0
  2  4  1  0  0  0  0
  2  1  1  0  0  0  0
  3  2  1  0  0  0  0
  5  2  1  0  0  0  0
  6  7  1  0  0  0  0
  7 16  2  0  0  0  0
  8  7  1  0  0  0  0
  8 13  2  0  0  0  0
  9  8  1  0  0  0  0
 10  9  2  0  0  0  0
 10 11  1  0  0  0  0
 11 12  2  0  0  0  0
 12 13  1  0  0  0  0
 13 14  1  0  0  0  0
 14 15  1  0  0  0  0
 16 14  1  0  0  0  0
 17 18  1  0  0  0  0
 18 19  1  0  0  0  0
 19 20  1  0  0  0  0
 20 21  2  0  0  0  0
 21 25  1  0  0  0  0
 22 21  1  0  0  0  0
 23 22  2  0  0  0  0
 24 19  2  0  0  0  0
 24 23  1  0  0  0  0
 25 26  2  0  0  0  0
 26 27  1  0  0  0  0
 27 28  2  0  0  0  0
 27 32  1  0  0  0  0
 28 29  1  0  0  0  0
 29 30  2  0  0  0  0
 31 30  1  0  0  0  0
 32 31  2  0  0  0  0
M  END
>  <minimizedAffinity>
-8.29055691

$$$$

 OpenBabel12271914503D

 32 35  0  0  1  0  0  0  0  0999 V2000
  -17.8010  -26.5750  -12.1730 C   0  0  1  0  0  0  0  0  0  0  0  0
  -18.4170  -25.9590  -13.3560 N   0  0  0  0  0  0  0  0  0  0  0  0
  -17.7500  -25.3160  -13.7620 H   0  0  0  0  0  0  0  0  0  0  0  0
  -19.2840  -25.4350  -13.1380 H   0  0  0  0  0  0  0  0  0  0  0  0
  -18.5960  -26.7080  -14.0610 H   0  0  0  0  0  0  0  0  0  0  0  0
  -18.6860  -27.6150  -11.5090 C   0  0  0  0  0  0  0  0  0  0  0  0
  -18.9090  -27.3210  -10.0830 C   0  0  0  0  0  0  0  0  0  0  0  0
  -19.9750  -26.5790   -9.5860 C   0  0  0  0  0  0  0  0  0  0  0  0
  -21.0500  -25.9370  -10.1840 C   0  0  0  0  0  0  0  0  0  0  0  0
  -21.9560  -25.2530   -9.3670 C   0  0  0  0  0  0  0  0  0  0  0  0
  -21.7920  -25.2120   -7.9900 C   0  0  0  0  0  0  0  0  0  0  0  0
  -20.6930  -25.8750   -7.3980 C   0  0  0  0  0  0  0  0  0  0  0  0
  -19.8040  -26.5530   -8.2250 C   0  0  0  0  0  0  0  0  0  0  0  0
  -18.6540  -27.2710   -7.8750 N   0  0  0  0  0  0  0  0  0  0  0  0
  -18.2690  -27.4090   -6.9620 H   0  0  0  0  0  0  0  0  0  0  0  0
  -18.1200  -27.7460   -9.0460 C   0  0  0  0  0  0  0  0  0  0  0  0
  -16.5800  -27.3810  -12.6580 C   0  0  0  0  0  0  0  0  0  0  0  0
  -15.3200  -26.6490  -12.3310 O   0  0  0  0  0  0  0  0  0  0  0  0
  -14.4020  -26.2950  -11.4830 C   0  0  0  0  0  0  0  0  0  0  0  0
  -14.7720  -26.7890  -10.2380 C   0  0  0  0  0  0  0  0  0  0  0  0
  -13.9910  -26.6120   -9.0910 C   0  0  0  0  0  0  0  0  0  0  0  0
  -12.8330  -25.9250   -9.2530 C   0  0  0  0  0  0  0  0  0  0  0  0
  -12.4290  -25.4160  -10.4580 N   0  0  0  0  0  0  0  0  0  0  0  0
  -13.2500  -25.6070  -11.5750 C   0  0  0  0  0  0  0  0  0  0  0  0
  -14.4190  -27.1520   -7.7950 C   0  0  0  0  0  0  0  0  0  0  0  0
  -15.1850  -26.5250   -6.8980 C   0  0  0  0  0  0  0  0  0  0  0  0
  -15.5810  -27.1120   -5.6160 C   0  0  0  0  0  0  0  0  0  0  0  0
  -16.8290  -26.7540   -5.0710 C   0  0  0  0  0  0  0  0  0  0  0  0
  -17.2250  -27.2830   -3.8820 C   0  0  0  0  0  0  0  0  0  0  0  0
  -16.4470  -28.1450   -3.2140 N   0  0  0  0  0  0  0  0  0  0  0  0
  -15.2440  -28.4900   -3.7350 C   0  0  0  0  0  0  0  0  0  0  0  0
  -14.7910  -28.0070   -4.9030 C   0  0  0  0  0  0  0  0  0  0  0  0
  1 17  1  6  0  0  0
  1  6  1  0  0  0  0
  2  4  1  0  0  0  0
  2  1  1  0  0  0  0
  3  2  1  0  0  0  0
  5  2  1  0  0  0  0
  6  7  1  0  0  0  0
  7  8  1  0  0  0  0
  7 16  2  0  0  0  0
  8 13  1  0  0  0  0
  9  8  2  0  0  0  0
  9 10  1  0  0  0  0
 10 11  2  0  0  0  0
 11 12  1  0  0  0  0
 13 14  1  0  0  0  0
 13 12  2  0  0  0  0
 14 15  1  0  0  0  0
 16 14  1  0  0  0  0
 17 18  1  0  0  0  0
 18 19  1  0  0  0  0
 19 20  1  0  0  0  0
 20 21  2  0  0  0  0
 21 25  1  0  0  0  0
 22 21  1  0  0  0  0
 23 22  2  0  0  0  0
 24 19  2  0  0  0  0
 24 23  1  0  0  0  0
 25 26  2  0  0  0  0
 26 27  1  0  0  0  0
 27 28  2  0  0  0  0
 27 32  1  0  0  0  0
 28 29  1  0  0  0  0
 29 30  2  0  0  0  0
 31 30  1  0  0  0  0
 32 31  2  0  0  0  0
M  END
>  <minimizedAffinity>
-8.10802746

$$$$

 OpenBabel12271914503D

 32 35  0  0  1  0  0  0  0  0999 V2000
  -25.2450  -24.3830   -4.9800 C   0  0  1  0  0  0  0  0  0  0  0  0
  -26.3050  -23.9470   -5.9000 N   0  0  0  0  0  0  0  0  0  0  0  0
  -25.8720  -23.6660   -6.7710 H   0  0  0  0  0  0  0  0  0  0  0  0
  -26.8570  -23.1490   -5.5380 H   0  0  0  0  0  0  0  0  0  0  0  0
  -26.9170  -24.7670   -6.1080 H   0  0  0  0  0  0  0  0  0  0  0  0
  -25.7770  -24.8950   -3.6540 C   0  0  0  0  0  0  0  0  0  0  0  0
  -26.2050  -23.7970   -2.7700 C   0  0  0  0  0  0  0  0  0  0  0  0
  -27.4020  -23.7720   -2.0620 C   0  0  0  0  0  0  0  0  0  0  0  0
  -28.4690  -24.6550   -1.9640 C   0  0  0  0  0  0  0  0  0  0  0  0
  -29.5490  -24.3040   -1.1480 C   0  0  0  0  0  0  0  0  0  0  0  0
  -29.5640  -23.1050   -0.4500 C   0  0  0  0  0  0  0  0  0  0  0  0
  -28.4670  -22.2210   -0.5590 C   0  0  0  0  0  0  0  0  0  0  0  0
  -27.3990  -22.5870   -1.3720 C   0  0  0  0  0  0  0  0  0  0  0  0
  -26.2190  -21.8840   -1.6380 N   0  0  0  0  0  0  0  0  0  0  0  0
  -25.9470  -20.9840   -1.2930 H   0  0  0  0  0  0  0  0  0  0  0  0
  -25.4890  -22.6600   -2.5030 C   0  0  0  0  0  0  0  0  0  0  0  0
  -24.5690  -25.6170   -5.6100 C   0  0  0  0  0  0  0  0  0  0  0  0
  -23.5040  -25.1850   -6.5650 O   0  0  0  0  0  0  0  0  0  0  0  0
  -22.8520  -25.3310   -7.6790 C   0  0  0  0  0  0  0  0  0  0  0  0
  -21.5500  -25.6940   -7.3550 C   0  0  0  0  0  0  0  0  0  0  0  0
  -20.5750  -25.9580   -8.3230 C   0  0  0  0  0  0  0  0  0  0  0  0
  -20.9660  -25.8440   -9.6160 C   0  0  0  0  0  0  0  0  0  0  0  0
  -22.2360  -25.4850   -9.9830 N   0  0  0  0  0  0  0  0  0  0  0  0
  -23.1730  -25.2180   -8.9800 C   0  0  0  0  0  0  0  0  0  0  0  0
  -19.2120  -26.3400   -7.9360 C   0  0  0  0  0  0  0  0  0  0  0  0
  -18.3650  -25.6020   -7.2130 C   0  0  0  0  0  0  0  0  0  0  0  0
  -17.0120  -26.0320   -6.8570 C   0  0  0  0  0  0  0  0  0  0  0  0
  -16.8420  -26.8480   -5.7220 C   0  0  0  0  0  0  0  0  0  0  0  0
  -15.5970  -27.2630   -5.3660 C   0  0  0  0  0  0  0  0  0  0  0  0
  -14.5190  -26.9100   -6.0800 N   0  0  0  0  0  0  0  0  0  0  0  0
  -14.6780  -26.1240   -7.1720 C   0  0  0  0  0  0  0  0  0  0  0  0
  -15.8770  -25.6780   -7.5800 C   0  0  0  0  0  0  0  0  0  0  0  0
  1 17  1  6  0  0  0
  1  6  1  0  0  0  0
  2  4  1  0  0  0  0
  2  1  1  0  0  0  0
  3  2  1  0  0  0  0
  5  2  1  0  0  0  0
  6  7  1  0  0  0  0
  7 16  2  0  0  0  0
  7  8  1  0  0  0  0
  8  9  2  0  0  0  0
  8 13  1  0  0  0  0
  9 10  1  0  0  0  0
 10 11  2  0  0  0  0
 12 11  1  0  0  0  0
 13 12  2  0  0  0  0
 14 13  1  0  0  0  0
 14 15  1  0  0  0  0
 16 14  1  0  0  0  0
 18 17  1  0  0  0  0
 19 20  1  0  0  0  0
 19 18  1  0  0  0  0
 21 25  1  0  0  0  0
 21 20  2  0  0  0  0
 22 21  1  0  0  0  0
 23 22  2  0  0  0  0
 23 24  1  0  0  0  0
 24 19  2  0  0  0  0
 25 26  2  0  0  0  0
 26 27  1  0  0  0  0
 27 28  2  0  0  0  0
 28 29  1  0  0  0  0
 30 29  2  0  0  0  0
 31 30  1  0  0  0  0
 32 31  2  0  0  0  0
 32 27  1  0  0  0  0
M  END
>  <minimizedAffinity>
-8.0923233

$$$$

 OpenBabel12271914503D

 32 35  0  0  1  0  0  0  0  0999 V2000
  -17.0400  -27.7840  -13.6440 C   0  0  1  0  0  0  0  0  0  0  0  0
  -15.8550  -28.4700  -14.1770 N   0  0  0  0  0  0  0  0  0  0  0  0
  -15.5290  -27.9560  -14.9850 H   0  0  0  0  0  0  0  0  0  0  0  0
  -16.0450  -29.4460  -14.4680 H   0  0  0  0  0  0  0  0  0  0  0  0
  -15.1010  -28.4300  -13.4570 H   0  0  0  0  0  0  0  0  0  0  0  0
  -17.5870  -28.4280  -12.3820 C   0  0  0  0  0  0  0  0  0  0  0  0
  -18.7550  -27.7010  -11.8540 C   0  0  0  0  0  0  0  0  0  0  0  0
  -18.9440  -27.3750  -10.5150 C   0  0  0  0  0  0  0  0  0  0  0  0
  -18.2000  -27.6010   -9.3650 C   0  0  0  0  0  0  0  0  0  0  0  0
  -18.7020  -27.1350   -8.1460 C   0  0  0  0  0  0  0  0  0  0  0  0
  -19.9150  -26.4640   -8.0770 C   0  0  0  0  0  0  0  0  0  0  0  0
  -20.6560  -26.2400   -9.2580 C   0  0  0  0  0  0  0  0  0  0  0  0
  -20.1400  -26.7060  -10.4630 C   0  0  0  0  0  0  0  0  0  0  0  0
  -20.6880  -26.6090  -11.7470 N   0  0  0  0  0  0  0  0  0  0  0  0
  -21.5580  -26.1930  -12.0160 H   0  0  0  0  0  0  0  0  0  0  0  0
  -19.8050  -27.2270  -12.5960 C   0  0  0  0  0  0  0  0  0  0  0  0
  -16.5910  -26.3840  -13.1820 C   0  0  0  0  0  0  0  0  0  0  0  0
  -15.2080  -26.4510  -12.6180 O   0  0  0  0  0  0  0  0  0  0  0  0
  -14.3520  -26.1810  -11.6800 C   0  0  0  0  0  0  0  0  0  0  0  0
  -14.8750  -26.6630  -10.4860 C   0  0  0  0  0  0  0  0  0  0  0  0
  -14.1970  -26.5630   -9.2670 C   0  0  0  0  0  0  0  0  0  0  0  0
  -12.9810  -25.9630   -9.3040 C   0  0  0  0  0  0  0  0  0  0  0  0
  -12.4270  -25.4690  -10.4550 N   0  0  0  0  0  0  0  0  0  0  0  0
  -13.1490  -25.5810  -11.6470 C   0  0  0  0  0  0  0  0  0  0  0  0
  -14.7860  -27.0880   -8.0300 C   0  0  0  0  0  0  0  0  0  0  0  0
  -14.8660  -26.4430   -6.8630 C   0  0  0  0  0  0  0  0  0  0  0  0
  -15.4640  -27.0170   -5.6560 C   0  0  0  0  0  0  0  0  0  0  0  0
  -14.7260  -27.9690   -4.9280 C   0  0  0  0  0  0  0  0  0  0  0  0
  -15.2550  -28.5190   -3.8020 C   0  0  0  0  0  0  0  0  0  0  0  0
  -16.4740  -28.1700   -3.3670 N   0  0  0  0  0  0  0  0  0  0  0  0
  -17.1880  -27.2550   -4.0660 C   0  0  0  0  0  0  0  0  0  0  0  0
  -16.7270  -26.6720   -5.1860 C   0  0  0  0  0  0  0  0  0  0  0  0
  1 17  1  1  0  0  0
  1  6  1  0  0  0  0
  2  1  1  0  0  0  0
  2  5  1  0  0  0  0
  3  2  1  0  0  0  0
  4  2  1  0  0  0  0
  6  7  1  0  0  0  0
  7  8  1  0  0  0  0
  8 13  2  0  0  0  0
  8  9  1  0  0  0  0
  9 10  2  0  0  0  0
 10 11  1  0  0  0  0
 12 11  2  0  0  0  0
 13 12  1  0  0  0  0
 14 13  1  0  0  0  0
 15 14  1  0  0  0  0
 16  7  2  0  0  0  0
 16 14  1  0  0  0  0
 17 18  1  0  0  0  0
 18 19  1  0  0  0  0
 19 24  2  0  0  0  0
 19 20  1  0  0  0  0
 20 21  2  0  0  0  0
 21 25  1  0  0  0  0
 22 21  1  0  0  0  0
 23 22  2  0  0  0  0
 24 23  1  0  0  0  0
 25 26  2  0  0  0  0
 26 27  1  0  0  0  0
 27 32  2  0  0  0  0
 27 28  1  0  0  0  0
 28 29  2  0  0  0  0
 29 30  1  0  0  0  0
 31 30  2  0  0  0  0
 32 31  1  0  0  0  0
M  END
>  <minimizedAffinity>
-7.99988031

$$$$

 OpenBabel12271914503D

 32 35  0  0  1  0  0  0  0  0999 V2000
  -25.9210  -25.7290   -4.0140 C   0  0  1  0  0  0  0  0  0  0  0  0
  -25.3510  -27.0470   -4.3290 N   0  0  0  0  0  0  0  0  0  0  0  0
  -25.5370  -27.2470   -5.3030 H   0  0  0  0  0  0  0  0  0  0  0  0
  -25.7530  -27.8120   -3.7570 H   0  0  0  0  0  0  0  0  0  0  0  0
  -24.3150  -26.9930   -4.2140 H   0  0  0  0  0  0  0  0  0  0  0  0
  -25.6480  -25.2850   -2.5880 C   0  0  0  0  0  0  0  0  0  0  0  0
  -26.7530  -24.4780   -2.0410 C   0  0  0  0  0  0  0  0  0  0  0  0
  -26.6050  -23.2210   -1.4640 C   0  0  0  0  0  0  0  0  0  0  0  0
  -25.5070  -22.4040   -1.2290 C   0  0  0  0  0  0  0  0  0  0  0  0
  -25.7180  -21.1730   -0.6000 C   0  0  0  0  0  0  0  0  0  0  0  0
  -26.9880  -20.7690   -0.2170 C   0  0  0  0  0  0  0  0  0  0  0  0
  -28.0930  -21.6120   -0.4680 C   0  0  0  0  0  0  0  0  0  0  0  0
  -27.8680  -22.8320   -1.0980 C   0  0  0  0  0  0  0  0  0  0  0  0
  -28.7920  -23.8240   -1.4430 N   0  0  0  0  0  0  0  0  0  0  0  0
  -29.7800  -23.8270   -1.2840 H   0  0  0  0  0  0  0  0  0  0  0  0
  -28.0760  -24.8340   -2.0360 C   0  0  0  0  0  0  0  0  0  0  0  0
  -25.1760  -24.6900   -4.8750 C   0  0  0  0  0  0  0  0  0  0  0  0
  -24.3180  -25.3820   -5.8840 O   0  0  0  0  0  0  0  0  0  0  0  0
  -23.6620  -25.3840   -7.0050 C   0  0  0  0  0  0  0  0  0  0  0  0
  -22.3480  -25.7330   -6.7190 C   0  0  0  0  0  0  0  0  0  0  0  0
  -21.3660  -25.8570   -7.7080 C   0  0  0  0  0  0  0  0  0  0  0  0
  -21.7620  -25.6160   -8.9820 C   0  0  0  0  0  0  0  0  0  0  0  0
  -23.0440  -25.2650   -9.3110 N   0  0  0  0  0  0  0  0  0  0  0  0
  -23.9890  -25.1420   -8.2870 C   0  0  0  0  0  0  0  0  0  0  0  0
  -19.9900  -26.2300   -7.3610 C   0  0  0  0  0  0  0  0  0  0  0  0
  -19.0090  -25.3880   -7.0250 C   0  0  0  0  0  0  0  0  0  0  0  0
  -17.6490  -25.8150   -6.6900 C   0  0  0  0  0  0  0  0  0  0  0  0
  -16.5820  -25.3400   -7.4760 C   0  0  0  0  0  0  0  0  0  0  0  0
  -15.3080  -25.7190   -7.1880 C   0  0  0  0  0  0  0  0  0  0  0  0
  -15.0440  -26.5410   -6.1630 N   0  0  0  0  0  0  0  0  0  0  0  0
  -16.0690  -27.0020   -5.4060 C   0  0  0  0  0  0  0  0  0  0  0  0
  -17.3500  -26.6690   -5.6330 C   0  0  0  0  0  0  0  0  0  0  0  0
  1 17  1  6  0  0  0
  1  6  1  0  0  0  0
  2  5  1  0  0  0  0
  2  1  1  0  0  0  0
  2  4  1  0  0  0  0
  3  2  1  0  0  0  0
  6  7  1  0  0  0  0
  7 16  2  0  0  0  0
  7  8  1  0  0  0  0
  8  9  2  0  0  0  0
  8 13  1  0  0  0  0
  9 10  1  0  0  0  0
 10 11  2  0  0  0  0
 12 11  1  0  0  0  0
 13 12  2  0  0  0  0
 14 15  1  0  0  0  0
 14 13  1  0  0  0  0
 16 14  1  0  0  0  0
 18 17  1  0  0  0  0
 19 20  1  0  0  0  0
 19 18  1  0  0  0  0
 21 25  1  0  0  0  0
 21 20  2  0  0  0  0
 22 21  1  0  0  0  0
 23 22  2  0  0  0  0
 23 24  1  0  0  0  0
 24 19  2  0  0  0  0
 25 26  2  0  0  0  0
 26 27  1  0  0  0  0
 27 32  2  0  0  0  0
 28 29  2  0  0  0  0
 28 27  1  0  0  0  0
 29 30  1  0  0  0  0
 30 31  2  0  0  0  0
 32 31  1  0  0  0  0
M  END
>  <minimizedAffinity>
-7.8619523

$$$$

 OpenBabel12271914503D

 32 35  0  0  1  0  0  0  0  0999 V2000
  -14.4330  -26.7580   -8.6520 C   0  0  1  0  0  0  0  0  0  0  0  0
  -13.9330  -28.1060   -8.9590 N   0  0  0  0  0  0  0  0  0  0  0  0
  -14.1920  -28.3300   -9.9110 H   0  0  0  0  0  0  0  0  0  0  0  0
  -14.3210  -28.8370   -8.3350 H   0  0  0  0  0  0  0  0  0  0  0  0
  -12.8900  -28.0870   -8.9160 H   0  0  0  0  0  0  0  0  0  0  0  0
  -14.0470  -26.2780   -7.2640 C   0  0  0  0  0  0  0  0  0  0  0  0
  -15.0140  -26.7140   -6.2410 C   0  0  0  0  0  0  0  0  0  0  0  0
  -16.3100  -26.2250   -6.1190 C   0  0  0  0  0  0  0  0  0  0  0  0
  -17.0410  -25.2760   -6.8210 C   0  0  0  0  0  0  0  0  0  0  0  0
  -18.3520  -25.0110   -6.4130 C   0  0  0  0  0  0  0  0  0  0  0  0
  -18.9180  -25.6740   -5.3340 C   0  0  0  0  0  0  0  0  0  0  0  0
  -18.1600  -26.6400   -4.6340 C   0  0  0  0  0  0  0  0  0  0  0  0
  -16.8590  -26.8940   -5.0550 C   0  0  0  0  0  0  0  0  0  0  0  0
  -15.9250  -27.7910   -4.5230 N   0  0  0  0  0  0  0  0  0  0  0  0
  -16.0350  -28.3990   -3.7360 H   0  0  0  0  0  0  0  0  0  0  0  0
  -14.7890  -27.6670   -5.2830 C   0  0  0  0  0  0  0  0  0  0  0  0
  -13.7130  -25.7760   -9.5970 C   0  0  0  0  0  0  0  0  0  0  0  0
  -13.8020  -26.2640  -11.0070 O   0  0  0  0  0  0  0  0  0  0  0  0
  -14.4080  -26.3090  -12.1550 C   0  0  0  0  0  0  0  0  0  0  0  0
  -13.5060  -25.8730  -13.1180 C   0  0  0  0  0  0  0  0  0  0  0  0
  -13.8210  -25.8180  -14.4800 C   0  0  0  0  0  0  0  0  0  0  0  0
  -15.0700  -26.2170  -14.8240 C   0  0  0  0  0  0  0  0  0  0  0  0
  -15.9950  -26.6490  -13.9100 N   0  0  0  0  0  0  0  0  0  0  0  0
  -15.6370  -26.6750  -12.5580 C   0  0  0  0  0  0  0  0  0  0  0  0
  -12.8370  -25.3540  -15.4640 C   0  0  0  0  0  0  0  0  0  0  0  0
  -11.9480  -24.3730  -15.2830 C   0  0  0  0  0  0  0  0  0  0  0  0
  -10.9880  -23.9470  -16.3030 C   0  0  0  0  0  0  0  0  0  0  0  0
  -10.6020  -22.5930  -16.3380 C   0  0  0  0  0  0  0  0  0  0  0  0
   -9.7110  -22.1680  -17.2740 C   0  0  0  0  0  0  0  0  0  0  0  0
   -9.1870  -23.0170  -18.1690 N   0  0  0  0  0  0  0  0  0  0  0  0
   -9.5580  -24.3200  -18.1390 C   0  0  0  0  0  0  0  0  0  0  0  0
  -10.4320  -24.8080  -17.2440 C   0  0  0  0  0  0  0  0  0  0  0  0
  1 17  1  6  0  0  0
  1  6  1  0  0  0  0
  2  5  1  0  0  0  0
  2  1  1  0  0  0  0
  2  4  1  0  0  0  0
  3  2  1  0  0  0  0
  6  7  1  0  0  0  0
  7  8  1  0  0  0  0
  7 16  2  0  0  0  0
  8 13  2  0  0  0  0
  9 10  2  0  0  0  0
  9  8  1  0  0  0  0
 10 11  1  0  0  0  0
 11 12  2  0  0  0  0
 13 12  1  0  0  0  0
 13 14  1  0  0  0  0
 14 15  1  0  0  0  0
 16 14  1  0  0  0  0
 18 17  1  0  0  0  0
 19 18  1  0  0  0  0
 20 19  2  0  0  0  0
 21 20  1  0  0  0  0
 22 21  2  0  0  0  0
 22 23  1  0  0  0  0
 23 24  2  0  0  0  0
 24 19  1  0  0  0  0
 25 26  2  0  0  0  0
 25 21  1  0  0  0  0
 27 26  1  0  0  0  0
 28 27  1  0  0  0  0
 29 28  2  0  0  0  0
 30 31  2  0  0  0  0
 30 29  1  0  0  0  0
 31 32  1  0  0  0  0
 32 27  2  0  0  0  0
M  END
>  <minimizedAffinity>
-7.80062389

$$$$

 OpenBabel12271914503D

 32 35  0  0  1  0  0  0  0  0999 V2000
  -13.7360  -25.7530   -7.7750 C   0  0  1  0  0  0  0  0  0  0  0  0
  -14.5950  -24.5900   -8.0400 N   0  0  0  0  0  0  0  0  0  0  0  0
  -14.0040  -23.7740   -8.1290 H   0  0  0  0  0  0  0  0  0  0  0  0
  -15.2840  -24.4120   -7.2870 H   0  0  0  0  0  0  0  0  0  0  0  0
  -15.0680  -24.7340   -8.9590 H   0  0  0  0  0  0  0  0  0  0  0  0
  -14.5060  -27.0580   -7.6850 C   0  0  0  0  0  0  0  0  0  0  0  0
  -15.2690  -27.1640   -6.4290 C   0  0  0  0  0  0  0  0  0  0  0  0
  -16.5640  -26.6900   -6.2470 C   0  0  0  0  0  0  0  0  0  0  0  0
  -17.4630  -26.0320   -7.0760 C   0  0  0  0  0  0  0  0  0  0  0  0
  -18.7110  -25.6790   -6.5550 C   0  0  0  0  0  0  0  0  0  0  0  0
  -19.0530  -25.9740   -5.2430 C   0  0  0  0  0  0  0  0  0  0  0  0
  -18.1270  -26.6470   -4.4160 C   0  0  0  0  0  0  0  0  0  0  0  0
  -16.8900  -26.9950   -4.9510 C   0  0  0  0  0  0  0  0  0  0  0  0
  -15.8210  -27.6540   -4.3320 N   0  0  0  0  0  0  0  0  0  0  0  0
  -15.7630  -27.9790   -3.3880 H   0  0  0  0  0  0  0  0  0  0  0  0
  -14.8280  -27.7550   -5.2740 C   0  0  0  0  0  0  0  0  0  0  0  0
  -12.8270  -25.9420   -9.0050 C   0  0  0  0  0  0  0  0  0  0  0  0
  -13.6280  -26.4570  -10.1570 O   0  0  0  0  0  0  0  0  0  0  0  0
  -14.2070  -26.2780  -11.3060 C   0  0  0  0  0  0  0  0  0  0  0  0
  -15.5790  -26.3310  -11.0930 C   0  0  0  0  0  0  0  0  0  0  0  0
  -16.5120  -26.1510  -12.1200 C   0  0  0  0  0  0  0  0  0  0  0  0
  -16.0070  -25.9160  -13.3560 C   0  0  0  0  0  0  0  0  0  0  0  0
  -14.6630  -25.8600  -13.6150 N   0  0  0  0  0  0  0  0  0  0  0  0
  -13.7680  -26.0580  -12.5580 C   0  0  0  0  0  0  0  0  0  0  0  0
  -17.9530  -26.2140  -11.8500 C   0  0  0  0  0  0  0  0  0  0  0  0
  -18.5310  -26.1320  -10.6480 C   0  0  0  0  0  0  0  0  0  0  0  0
  -19.9780  -26.2030  -10.4350 C   0  0  0  0  0  0  0  0  0  0  0  0
  -20.8200  -25.4610  -11.2860 C   0  0  0  0  0  0  0  0  0  0  0  0
  -22.1680  -25.5080  -11.1130 C   0  0  0  0  0  0  0  0  0  0  0  0
  -22.7170  -26.2530  -10.1420 N   0  0  0  0  0  0  0  0  0  0  0  0
  -21.9090  -26.9660   -9.3210 C   0  0  0  0  0  0  0  0  0  0  0  0
  -20.5710  -26.9660   -9.4340 C   0  0  0  0  0  0  0  0  0  0  0  0
  1 17  1  6  0  0  0
  1  6  1  0  0  0  0
  2  1  1  0  0  0  0
  2  4  1  0  0  0  0
  3  2  1  0  0  0  0
  5  2  1  0  0  0  0
  6  7  1  0  0  0  0
  7  8  1  0  0  0  0
  7 16  2  0  0  0  0
  8 13  2  0  0  0  0
  9 10  2  0  0  0  0
  9  8  1  0  0  0  0
 10 11  1  0  0  0  0
 11 12  2  0  0  0  0
 13 12  1  0  0  0  0
 13 14  1  0  0  0  0
 14 15  1  0  0  0  0
 16 14  1  0  0  0  0
 18 17  1  0  0  0  0
 19 20  1  0  0  0  0
 19 18  1  0  0  0  0
 21 25  1  0  0  0  0
 21 20  2  0  0  0  0
 22 21  1  0  0  0  0
 23 22  2  0  0  0  0
 23 24  1  0  0  0  0
 24 19  2  0  0  0  0
 25 26  2  0  0  0  0
 26 27  1  0  0  0  0
 27 32  2  0  0  0  0
 28 29  2  0  0  0  0
 28 27  1  0  0  0  0
 29 30  1  0  0  0  0
 30 31  2  0  0  0  0
 32 31  1  0  0  0  0
M  END
>  <minimizedAffinity>
-7.64269924

$$$$

 OpenBabel12271914503D

 32 35  0  0  1  0  0  0  0  0999 V2000
  -20.9760  -25.4550   -6.9650 C   0  0  1  0  0  0  0  0  0  0  0  0
  -22.0500  -26.3570   -6.5270 N   0  0  0  0  0  0  0  0  0  0  0  0
  -22.8300  -25.7930   -6.2150 H   0  0  0  0  0  0  0  0  0  0  0  0
  -21.7680  -26.9800   -5.7490 H   0  0  0  0  0  0  0  0  0  0  0  0
  -22.3740  -26.9070   -7.3530 H   0  0  0  0  0  0  0  0  0  0  0  0
  -19.7680  -26.1880   -7.5210 C   0  0  0  0  0  0  0  0  0  0  0  0
  -18.7310  -26.3990   -6.4950 C   0  0  0  0  0  0  0  0  0  0  0  0
  -17.4000  -26.6980   -6.7660 C   0  0  0  0  0  0  0  0  0  0  0  0
  -16.6850  -26.8830   -7.9420 C   0  0  0  0  0  0  0  0  0  0  0  0
  -15.3250  -27.1920   -7.8510 C   0  0  0  0  0  0  0  0  0  0  0  0
  -14.6950  -27.3140   -6.6200 C   0  0  0  0  0  0  0  0  0  0  0  0
  -15.4380  -27.1180   -5.4350 C   0  0  0  0  0  0  0  0  0  0  0  0
  -16.7900  -26.8070   -5.5430 C   0  0  0  0  0  0  0  0  0  0  0  0
  -17.7210  -26.5760   -4.5230 N   0  0  0  0  0  0  0  0  0  0  0  0
  -17.5700  -26.6070   -3.5340 H   0  0  0  0  0  0  0  0  0  0  0  0
  -18.9190  -26.3160   -5.1400 C   0  0  0  0  0  0  0  0  0  0  0  0
  -21.5110  -24.6550   -8.1690 C   0  0  0  0  0  0  0  0  0  0  0  0
  -21.7050  -25.5630   -9.3400 O   0  0  0  0  0  0  0  0  0  0  0  0
  -21.5050  -25.8630  -10.5880 C   0  0  0  0  0  0  0  0  0  0  0  0
  -20.1310  -25.9440  -10.7810 C   0  0  0  0  0  0  0  0  0  0  0  0
  -19.5590  -26.2760  -12.0140 C   0  0  0  0  0  0  0  0  0  0  0  0
  -20.4220  -26.5210  -13.0300 C   0  0  0  0  0  0  0  0  0  0  0  0
  -21.7820  -26.4490  -12.8890 N   0  0  0  0  0  0  0  0  0  0  0  0
  -22.3080  -26.1010  -11.6400 C   0  0  0  0  0  0  0  0  0  0  0  0
  -18.1020  -26.3530  -12.1730 C   0  0  0  0  0  0  0  0  0  0  0  0
  -17.2250  -25.4010  -11.8420 C   0  0  0  0  0  0  0  0  0  0  0  0
  -15.7780  -25.5280  -12.0250 C   0  0  0  0  0  0  0  0  0  0  0  0
  -14.9350  -25.2460  -10.9340 C   0  0  0  0  0  0  0  0  0  0  0  0
  -13.5870  -25.3560  -11.0740 C   0  0  0  0  0  0  0  0  0  0  0  0
  -13.0390  -25.7330  -12.2380 N   0  0  0  0  0  0  0  0  0  0  0  0
  -13.8480  -26.0040  -13.2910 C   0  0  0  0  0  0  0  0  0  0  0  0
  -15.1860  -25.9150  -13.2230 C   0  0  0  0  0  0  0  0  0  0  0  0
  1 17  1  6  0  0  0
  1  2  1  0  0  0  0
  2  3  1  0  0  0  0
  2  4  1  0  0  0  0
  5  2  1  0  0  0  0
  6  1  1  0  0  0  0
  6  7  1  0  0  0  0
  7 16  2  0  0  0  0
  8  7  1  0  0  0  0
  8 13  2  0  0  0  0
  9 10  2  0  0  0  0
  9  8  1  0  0  0  0
 10 11  1  0  0  0  0
 11 12  2  0  0  0  0
 13 12  1  0  0  0  0
 13 14  1  0  0  0  0
 14 15  1  0  0  0  0
 16 14  1  0  0  0  0
 18 17  1  0  0  0  0
 19 18  1  0  0  0  0
 20 19  1  0  0  0  0
 21 20  2  0  0  0  0
 22 23  2  0  0  0  0
 22 21  1  0  0  0  0
 23 24  1  0  0  0  0
 24 19  2  0  0  0  0
 25 21  1  0  0  0  0
 25 26  2  0  0  0  0
 27 26  1  0  0  0  0
 27 28  2  0  0  0  0
 29 28  1  0  0  0  0
 30 29  2  0  0  0  0
 31 32  2  0  0  0  0
 31 30  1  0  0  0  0
 32 27  1  0  0  0  0
M  END
>  <minimizedAffinity>
-7.57508469

$$$$
