
 OpenBabel12271914503D

 25 29  0  0  1  0  0  0  0  0999 V2000
  -14.3280  -26.7840   -6.9550 C   0  0  1  0  0  0  0  0  0  0  0  0
  -15.3380  -25.8480   -7.6720 C   0  0  1  0  0  0  0  0  0  0  0  0
  -15.1140  -25.7560   -9.1540 C   0  0  0  0  0  0  0  0  0  0  0  0
  -13.7600  -25.6790   -9.5360 C   0  0  0  0  0  0  0  0  0  0  0  0
  -13.4440  -25.5920  -10.8790 C   0  0  0  0  0  0  0  0  0  0  0  0
  -12.1930  -25.5510  -11.4280 O   0  0  0  0  0  0  0  0  0  0  0  0
  -12.4590  -25.2380  -12.8190 C   0  0  0  0  0  0  0  0  0  0  0  0
  -13.8550  -25.4850  -13.0970 O   0  0  0  0  0  0  0  0  0  0  0  0
  -14.3890  -25.5520  -11.8420 C   0  0  0  0  0  0  0  0  0  0  0  0
  -15.7250  -25.5950  -11.5030 C   0  0  0  0  0  0  0  0  0  0  0  0
  -16.0920  -25.6840  -10.1520 C   0  0  0  0  0  0  0  0  0  0  0  0
  -17.5690  -25.7280   -9.9280 C   0  0  0  0  0  0  0  0  0  0  0  0
  -17.9210  -27.0080   -9.2220 C   0  0  0  0  0  0  0  0  0  0  0  0
  -17.6530  -27.0630   -7.7710 N   0  0  2  0  0  0  0  0  0  0  0  0
  -17.3440  -28.0370   -7.5900 H   0  0  0  0  0  0  0  0  0  0  0  0
  -18.9130  -26.8770   -6.9830 C   0  0  0  0  0  0  0  0  0  0  0  0
  -18.9410  -25.4030   -6.6240 C   0  0  0  0  0  0  0  0  0  0  0  0
  -17.5070  -24.9290   -6.6930 C   0  0  0  0  0  0  0  0  0  0  0  0
  -16.7050  -26.1670   -7.0760 C   0  0  2  0  0  0  0  0  0  0  0  0
  -16.3310  -26.8390   -5.7840 C   0  0  0  0  0  0  0  0  0  0  0  0
  -15.0490  -27.1710   -5.7330 C   0  0  2  0  0  0  0  0  0  0  0  0
  -13.9810  -27.9170   -7.7190 O   0  0  0  0  0  0  0  0  0  0  0  0
  -14.7650  -28.4470   -7.9310 H   0  0  0  0  0  0  0  0  0  0  0  0
  -14.4970  -27.7680   -4.6260 O   0  0  0  0  0  0  0  0  0  0  0  0
  -15.4090  -28.3990   -3.7240 C   0  0  0  0  0  0  0  0  0  0  0  0
  1 22  1  6  0  0  0
  1 21  1  0  0  0  0
  2 19  1  6  0  0  0
  2  1  1  0  0  0  0
  3  2  1  0  0  0  0
  4  3  1  0  0  0  0
  5  4  2  0  0  0  0
  6  5  1  0  0  0  0
  7  6  1  0  0  0  0
  8  7  1  0  0  0  0
  8  9  1  0  0  0  0
  9 10  2  0  0  0  0
  9  5  1  0  0  0  0
 10 11  1  0  0  0  0
 11 12  1  0  0  0  0
 11  3  2  0  0  0  0
 12 13  1  0  0  0  0
 13 14  1  0  0  0  0
 14 15  1  0  0  0  0
 14 19  1  1  0  0  0
 14 16  1  0  0  0  0
 16 17  1  0  0  0  0
 18 17  1  0  0  0  0
 19 18  1  1  0  0  0
 19 20  1  0  0  0  0
 20 21  1  0  0  0  0
 21 24  1  1  0  0  0
 23 22  1  0  0  0  0
 24 25  1  0  0  0  0
M  END
>  <minimizedAffinity>
-9.07018757

$$$$

 OpenBabel12271914503D

 25 29  0  0  1  0  0  0  0  0999 V2000
  -18.2150  -26.1170   -9.5280 C   0  0  1  0  0  0  0  0  0  0  0  0
  -16.8090  -25.7310   -8.9950 C   0  0  1  0  0  0  0  0  0  0  0  0
  -16.5200  -26.2840   -7.6290 C   0  0  0  0  0  0  0  0  0  0  0  0
  -17.6040  -26.2210   -6.7320 C   0  0  0  0  0  0  0  0  0  0  0  0
  -17.4420  -26.7040   -5.4460 C   0  0  0  0  0  0  0  0  0  0  0  0
  -18.3910  -26.7590   -4.4640 O   0  0  0  0  0  0  0  0  0  0  0  0
  -17.6230  -27.1350   -3.2930 C   0  0  0  0  0  0  0  0  0  0  0  0
  -16.3410  -27.6500   -3.7160 O   0  0  0  0  0  0  0  0  0  0  0  0
  -16.2720  -27.2140   -5.0090 C   0  0  0  0  0  0  0  0  0  0  0  0
  -15.1810  -27.2640   -5.8510 C   0  0  0  0  0  0  0  0  0  0  0  0
  -15.2980  -26.7860   -7.1640 C   0  0  0  0  0  0  0  0  0  0  0  0
  -14.0430  -26.9060   -7.9670 C   0  0  0  0  0  0  0  0  0  0  0  0
  -14.3110  -27.7690   -9.1690 C   0  0  0  0  0  0  0  0  0  0  0  0
  -15.0260  -27.1360  -10.2960 N   0  0  2  0  0  0  0  0  0  0  0  0
  -15.6390  -27.8810  -10.6780 H   0  0  0  0  0  0  0  0  0  0  0  0
  -14.0800  -26.7740  -11.3990 C   0  0  0  0  0  0  0  0  0  0  0  0
  -13.7490  -25.3110  -11.1720 C   0  0  0  0  0  0  0  0  0  0  0  0
  -14.8910  -24.7460  -10.3590 C   0  0  0  0  0  0  0  0  0  0  0  0
  -15.8490  -25.9160  -10.1650 C   0  0  2  0  0  0  0  0  0  0  0  0
  -16.7860  -25.8890  -11.3420 C   0  0  0  0  0  0  0  0  0  0  0  0
  -18.0570  -26.0040  -10.9860 C   0  0  2  0  0  0  0  0  0  0  0  0
  -18.6110  -27.4200   -9.1620 O   0  0  0  0  0  0  0  0  0  0  0  0
  -17.9840  -28.0800   -9.4960 H   0  0  0  0  0  0  0  0  0  0  0  0
  -19.0750  -25.9700  -11.9070 O   0  0  0  0  0  0  0  0  0  0  0  0
  -20.3130  -25.4070  -11.4640 C   0  0  0  0  0  0  0  0  0  0  0  0
  1 22  1  6  0  0  0
  1  2  1  0  0  0  0
  2 19  1  6  0  0  0
  2  3  1  0  0  0  0
  3 11  2  0  0  0  0
  3  4  1  0  0  0  0
  4  5  2  0  0  0  0
  5  9  1  0  0  0  0
  5  6  1  0  0  0  0
  6  7  1  0  0  0  0
  8  7  1  0  0  0  0
  9  8  1  0  0  0  0
 10  9  2  0  0  0  0
 11 10  1  0  0  0  0
 12 11  1  0  0  0  0
 13 12  1  0  0  0  0
 14 19  1  1  0  0  0
 14 13  1  0  0  0  0
 15 14  1  0  0  0  0
 16 17  1  0  0  0  0
 16 14  1  0  0  0  0
 17 18  1  0  0  0  0
 18 19  1  0  0  0  0
 19 20  1  6  0  0  0
 20 21  1  0  0  0  0
 21 24  1  1  0  0  0
 21  1  1  0  0  0  0
 23 22  1  0  0  0  0
 24 25  1  0  0  0  0
M  END
>  <minimizedAffinity>
-8.54530811

$$$$

 OpenBabel12271914503D

 25 29  0  0  1  0  0  0  0  0999 V2000
  -17.1930  -27.2730   -6.7420 C   0  0  1  0  0  0  0  0  0  0  0  0
  -16.5460  -27.3630   -8.1500 C   0  0  1  0  0  0  0  0  0  0  0  0
  -17.4220  -26.8190   -9.2420 C   0  0  0  0  0  0  0  0  0  0  0  0
  -18.7850  -27.1560   -9.1200 C   0  0  0  0  0  0  0  0  0  0  0  0
  -19.6770  -26.7040  -10.0740 C   0  0  0  0  0  0  0  0  0  0  0  0
  -21.0300  -26.8990  -10.0920 O   0  0  0  0  0  0  0  0  0  0  0  0
  -21.4110  -26.4140  -11.4040 C   0  0  0  0  0  0  0  0  0  0  0  0
  -20.3330  -25.6140  -11.9400 O   0  0  0  0  0  0  0  0  0  0  0  0
  -19.2870  -25.9690  -11.1360 C   0  0  0  0  0  0  0  0  0  0  0  0
  -17.9580  -25.6450  -11.3040 C   0  0  0  0  0  0  0  0  0  0  0  0
  -17.0160  -26.0820  -10.3600 C   0  0  0  0  0  0  0  0  0  0  0  0
  -15.6150  -25.6560  -10.6610 C   0  0  0  0  0  0  0  0  0  0  0  0
  -15.1000  -24.8230   -9.5200 C   0  0  0  0  0  0  0  0  0  0  0  0
  -14.6690  -25.5480   -8.3090 N   0  0  2  0  0  0  0  0  0  0  0  0
  -14.9500  -24.9400   -7.5160 H   0  0  0  0  0  0  0  0  0  0  0  0
  -13.1760  -25.6480   -8.2420 C   0  0  0  0  0  0  0  0  0  0  0  0
  -12.8440  -27.0110   -8.8200 C   0  0  0  0  0  0  0  0  0  0  0  0
  -14.0940  -27.8460   -8.6620 C   0  0  0  0  0  0  0  0  0  0  0  0
  -15.0970  -26.9240   -7.9780 C   0  0  2  0  0  0  0  0  0  0  0  0
  -14.8910  -27.1050   -6.4990 C   0  0  0  0  0  0  0  0  0  0  0  0
  -16.0280  -27.2870   -5.8440 C   0  0  2  0  0  0  0  0  0  0  0  0
  -17.9610  -26.1050   -6.5560 O   0  0  0  0  0  0  0  0  0  0  0  0
  -17.4180  -25.3100   -6.6770 H   0  0  0  0  0  0  0  0  0  0  0  0
  -16.0580  -27.5040   -4.4880 O   0  0  0  0  0  0  0  0  0  0  0  0
  -15.0550  -28.3770   -3.9630 C   0  0  0  0  0  0  0  0  0  0  0  0
  1 22  1  6  0  0  0
  1 21  1  0  0  0  0
  2 19  1  1  0  0  0
  2  1  1  0  0  0  0
  3  4  1  0  0  0  0
  3  2  1  0  0  0  0
  5  4  2  0  0  0  0
  6  5  1  0  0  0  0
  7  6  1  0  0  0  0
  8  7  1  0  0  0  0
  8  9  1  0  0  0  0
  9  5  1  0  0  0  0
 10  9  2  0  0  0  0
 10 11  1  0  0  0  0
 11  3  2  0  0  0  0
 12 11  1  0  0  0  0
 12 13  1  0  0  0  0
 13 14  1  0  0  0  0
 14 16  1  0  0  0  0
 14 19  1  1  0  0  0
 14 15  1  0  0  0  0
 17 18  1  0  0  0  0
 17 16  1  0  0  0  0
 19 18  1  6  0  0  0
 19 20  1  0  0  0  0
 20 21  1  0  0  0  0
 21 24  1  6  0  0  0
 23 22  1  0  0  0  0
 24 25  1  0  0  0  0
M  END
>  <minimizedAffinity>
-8.32258606

$$$$

 OpenBabel12271914503D

 25 29  0  0  1  0  0  0  0  0999 V2000
  -17.6440  -27.0420  -10.7430 C   0  0  1  0  0  0  0  0  0  0  0  0
  -17.3350  -26.1100   -9.5400 C   0  0  1  0  0  0  0  0  0  0  0  0
  -18.4420  -26.0600   -8.5280 C   0  0  0  0  0  0  0  0  0  0  0  0
  -19.7380  -26.0120   -9.0820 C   0  0  0  0  0  0  0  0  0  0  0  0
  -20.8290  -25.9640   -8.2340 C   0  0  0  0  0  0  0  0  0  0  0  0
  -22.1480  -25.9550   -8.5940 O   0  0  0  0  0  0  0  0  0  0  0  0
  -22.8230  -25.6750   -7.3420 C   0  0  0  0  0  0  0  0  0  0  0  0
  -21.9060  -25.9090   -6.2500 O   0  0  0  0  0  0  0  0  0  0  0  0
  -20.7000  -25.9360   -6.8920 C   0  0  0  0  0  0  0  0  0  0  0  0
  -19.4480  -25.9500   -6.3160 C   0  0  0  0  0  0  0  0  0  0  0  0
  -18.3110  -25.9990   -7.1360 C   0  0  0  0  0  0  0  0  0  0  0  0
  -17.0200  -26.0160   -6.3820 C   0  0  0  0  0  0  0  0  0  0  0  0
  -16.2690  -27.2720   -6.7240 C   0  0  0  0  0  0  0  0  0  0  0  0
  -15.5630  -27.2930   -8.0210 N   0  0  2  0  0  0  0  0  0  0  0  0
  -15.6640  -28.2670   -8.3670 H   0  0  0  0  0  0  0  0  0  0  0  0
  -14.0940  -27.0690   -7.8400 C   0  0  0  0  0  0  0  0  0  0  0  0
  -13.8870  -25.5860   -8.0850 C   0  0  0  0  0  0  0  0  0  0  0  0
  -15.0580  -25.1350   -8.9280 C   0  0  0  0  0  0  0  0  0  0  0  0
  -15.8890  -26.3940   -9.1480 C   0  0  2  0  0  0  0  0  0  0  0  0
  -15.3490  -27.0380  -10.3950 C   0  0  0  0  0  0  0  0  0  0  0  0
  -16.3050  -27.3870  -11.2440 C   0  0  2  0  0  0  0  0  0  0  0  0
  -18.3630  -28.1990  -10.3800 O   0  0  0  0  0  0  0  0  0  0  0  0
  -17.8710  -28.7220   -9.7280 H   0  0  0  0  0  0  0  0  0  0  0  0
  -16.0220  -27.9620  -12.4590 O   0  0  0  0  0  0  0  0  0  0  0  0
  -14.9980  -27.3350  -13.2350 C   0  0  0  0  0  0  0  0  0  0  0  0
  1 22  1  1  0  0  0
  1  2  1  0  0  0  0
  2 19  1  1  0  0  0
  2  3  1  0  0  0  0
  3 11  1  0  0  0  0
  4  3  2  0  0  0  0
  4  5  1  0  0  0  0
  5  9  2  0  0  0  0
  6  5  1  0  0  0  0
  6  7  1  0  0  0  0
  7  8  1  0  0  0  0
  9 10  1  0  0  0  0
  9  8  1  0  0  0  0
 11 12  1  0  0  0  0
 11 10  2  0  0  0  0
 13 12  1  0  0  0  0
 14 19  1  6  0  0  0
 14 16  1  0  0  0  0
 14 13  1  0  0  0  0
 15 14  1  0  0  0  0
 17 16  1  0  0  0  0
 18 17  1  0  0  0  0
 19 20  1  6  0  0  0
 19 18  1  0  0  0  0
 21 24  1  6  0  0  0
 21  1  1  0  0  0  0
 21 20  1  0  0  0  0
 22 23  1  0  0  0  0
 25 24  1  0  0  0  0
M  END
>  <minimizedAffinity>
-8.11722851

$$$$

 OpenBabel12271914503D

 25 29  0  0  1  0  0  0  0  0999 V2000
  -18.3270  -27.2200   -7.3860 C   0  0  1  0  0  0  0  0  0  0  0  0
  -17.0890  -27.6630   -8.2120 C   0  0  1  0  0  0  0  0  0  0  0  0
  -17.4220  -28.0350   -9.6280 C   0  0  0  0  0  0  0  0  0  0  0  0
  -18.6110  -28.7780   -9.7730 C   0  0  0  0  0  0  0  0  0  0  0  0
  -19.0080  -29.1700  -11.0380 C   0  0  0  0  0  0  0  0  0  0  0  0
  -20.1450  -29.8550  -11.3660 O   0  0  0  0  0  0  0  0  0  0  0  0
  -19.9350  -30.1810  -12.7630 C   0  0  0  0  0  0  0  0  0  0  0  0
  -18.8720  -29.3530  -13.2850 O   0  0  0  0  0  0  0  0  0  0  0  0
  -18.2850  -28.8880  -12.1420 C   0  0  0  0  0  0  0  0  0  0  0  0
  -17.1020  -28.1890  -12.0340 C   0  0  0  0  0  0  0  0  0  0  0  0
  -16.6590  -27.7700  -10.7710 C   0  0  0  0  0  0  0  0  0  0  0  0
  -15.3670  -27.0190  -10.8010 C   0  0  0  0  0  0  0  0  0  0  0  0
  -15.5860  -25.6440  -10.2320 C   0  0  0  0  0  0  0  0  0  0  0  0
  -15.6670  -25.5380   -8.7620 N   0  0  2  0  0  0  0  0  0  0  0  0
  -16.3790  -24.8030   -8.5840 H   0  0  0  0  0  0  0  0  0  0  0  0
  -14.3850  -25.0170   -8.1870 C   0  0  0  0  0  0  0  0  0  0  0  0
  -13.6130  -26.2520   -7.7610 C   0  0  0  0  0  0  0  0  0  0  0  0
  -14.6430  -27.3410   -7.5630 C   0  0  0  0  0  0  0  0  0  0  0  0
  -15.9790  -26.6750   -7.8720 C   0  0  2  0  0  0  0  0  0  0  0  0
  -16.4670  -26.0960   -6.5720 C   0  0  0  0  0  0  0  0  0  0  0  0
  -17.7350  -26.3920   -6.3250 C   0  0  2  0  0  0  0  0  0  0  0  0
  -19.2640  -26.4830   -8.1400 O   0  0  0  0  0  0  0  0  0  0  0  0
  -18.8600  -25.6820   -8.5080 H   0  0  0  0  0  0  0  0  0  0  0  0
  -18.3640  -25.9850   -5.1740 O   0  0  0  0  0  0  0  0  0  0  0  0
  -18.0840  -26.7450   -3.9950 C   0  0  0  0  0  0  0  0  0  0  0  0
  1 22  1  6  0  0  0
  1 21  1  0  0  0  0
  2 19  1  6  0  0  0
  2  1  1  0  0  0  0
  3  2  1  0  0  0  0
  4  3  1  0  0  0  0
  5  4  2  0  0  0  0
  6  5  1  0  0  0  0
  7  6  1  0  0  0  0
  8  7  1  0  0  0  0
  8  9  1  0  0  0  0
  9 10  2  0  0  0  0
  9  5  1  0  0  0  0
 10 11  1  0  0  0  0
 11  3  2  0  0  0  0
 12 11  1  0  0  0  0
 12 13  1  0  0  0  0
 13 14  1  0  0  0  0
 14 15  1  0  0  0  0
 14 16  1  0  0  0  0
 14 19  1  1  0  0  0
 16 17  1  0  0  0  0
 17 18  1  0  0  0  0
 19 18  1  1  0  0  0
 19 20  1  0  0  0  0
 20 21  1  0  0  0  0
 21 24  1  1  0  0  0
 23 22  1  0  0  0  0
 24 25  1  0  0  0  0
M  END
>  <minimizedAffinity>
-7.77176189

$$$$

 OpenBabel12271914503D

 25 29  0  0  1  0  0  0  0  0999 V2000
  -16.0700  -26.3120  -11.9120 C   0  0  1  0  0  0  0  0  0  0  0  0
  -16.5460  -25.8160  -10.5200 C   0  0  1  0  0  0  0  0  0  0  0  0
  -17.9990  -26.0890  -10.2580 C   0  0  0  0  0  0  0  0  0  0  0  0
  -18.8440  -25.8610  -11.3620 C   0  0  0  0  0  0  0  0  0  0  0  0
  -20.2020  -26.0830  -11.2260 C   0  0  0  0  0  0  0  0  0  0  0  0
  -21.1570  -25.9540  -12.1960 O   0  0  0  0  0  0  0  0  0  0  0  0
  -22.3950  -26.0860  -11.4520 C   0  0  0  0  0  0  0  0  0  0  0  0
  -22.1060  -26.6620  -10.1580 O   0  0  0  0  0  0  0  0  0  0  0  0
  -20.7550  -26.4860  -10.0630 C   0  0  0  0  0  0  0  0  0  0  0  0
  -19.9620  -26.6890   -8.9530 C   0  0  0  0  0  0  0  0  0  0  0  0
  -18.5780  -26.4770   -9.0450 C   0  0  0  0  0  0  0  0  0  0  0  0
  -17.8400  -26.7400   -7.7720 C   0  0  0  0  0  0  0  0  0  0  0  0
  -16.8250  -27.8240   -8.0080 C   0  0  0  0  0  0  0  0  0  0  0  0
  -15.5820  -27.4310   -8.7010 N   0  0  2  0  0  0  0  0  0  0  0  0
  -15.3400  -28.2420   -9.3020 H   0  0  0  0  0  0  0  0  0  0  0  0
  -14.4480  -27.2820   -7.7330 C   0  0  0  0  0  0  0  0  0  0  0  0
  -14.3920  -25.8000   -7.4150 C   0  0  0  0  0  0  0  0  0  0  0  0
  -15.0550  -25.0980   -8.5780 C   0  0  0  0  0  0  0  0  0  0  0  0
  -15.4540  -26.2170   -9.5340 C   0  0  2  0  0  0  0  0  0  0  0  0
  -14.2760  -26.4290  -10.4440 C   0  0  0  0  0  0  0  0  0  0  0  0
  -14.6220  -26.4840  -11.7220 C   0  0  2  0  0  0  0  0  0  0  0  0
  -16.6750  -27.5220  -12.3090 O   0  0  0  0  0  0  0  0  0  0  0  0
  -16.4890  -28.2290  -11.6710 H   0  0  0  0  0  0  0  0  0  0  0  0
  -13.6910  -26.6410  -12.7200 O   0  0  0  0  0  0  0  0  0  0  0  0
  -13.9720  -25.9860  -13.9590 C   0  0  0  0  0  0  0  0  0  0  0  0
  1 22  1  1  0  0  0
  1 21  1  0  0  0  0
  1  2  1  0  0  0  0
  2  3  1  0  0  0  0
  2 19  1  1  0  0  0
  3 11  2  0  0  0  0
  4  5  2  0  0  0  0
  4  3  1  0  0  0  0
  5  9  1  0  0  0  0
  6  7  1  0  0  0  0
  6  5  1  0  0  0  0
  7  8  1  0  0  0  0
  8  9  1  0  0  0  0
  9 10  2  0  0  0  0
 11 10  1  0  0  0  0
 11 12  1  0  0  0  0
 13 12  1  0  0  0  0
 14 19  1  6  0  0  0
 14 13  1  0  0  0  0
 14 16  1  0  0  0  0
 15 14  1  0  0  0  0
 16 17  1  0  0  0  0
 18 17  1  0  0  0  0
 19 20  1  6  0  0  0
 19 18  1  0  0  0  0
 21 24  1  6  0  0  0
 21 20  1  0  0  0  0
 22 23  1  0  0  0  0
 25 24  1  0  0  0  0
M  END
>  <minimizedAffinity>
-7.75226307

$$$$

 OpenBabel12271914503D

 25 29  0  0  1  0  0  0  0  0999 V2000
  -18.3890  -27.2790   -9.8460 C   0  0  1  0  0  0  0  0  0  0  0  0
  -16.8520  -27.4950   -9.8210 C   0  0  1  0  0  0  0  0  0  0  0  0
  -16.2420  -27.5770  -11.1900 C   0  0  0  0  0  0  0  0  0  0  0  0
  -16.9960  -28.3190  -12.1220 C   0  0  0  0  0  0  0  0  0  0  0  0
  -16.5220  -28.4550  -13.4130 C   0  0  0  0  0  0  0  0  0  0  0  0
  -17.1370  -29.1000  -14.4500 O   0  0  0  0  0  0  0  0  0  0  0  0
  -16.1100  -29.1220  -15.4730 C   0  0  0  0  0  0  0  0  0  0  0  0
  -15.0840  -28.1640  -15.1300 O   0  0  0  0  0  0  0  0  0  0  0  0
  -15.3470  -27.9240  -13.8110 C   0  0  0  0  0  0  0  0  0  0  0  0
  -14.5690  -27.2180  -12.9190 C   0  0  0  0  0  0  0  0  0  0  0  0
  -15.0100  -27.0530  -11.5970 C   0  0  0  0  0  0  0  0  0  0  0  0
  -14.0730  -26.2630  -10.7410 C   0  0  0  0  0  0  0  0  0  0  0  0
  -14.7890  -25.0450  -10.2260 C   0  0  0  0  0  0  0  0  0  0  0  0
  -15.7210  -25.2480   -9.0990 N   0  0  2  0  0  0  0  0  0  0  0  0
  -16.5070  -24.5950   -9.2780 H   0  0  0  0  0  0  0  0  0  0  0  0
  -15.1070  -24.8100   -7.8050 C   0  0  0  0  0  0  0  0  0  0  0  0
  -14.5450  -26.0760   -7.1850 C   0  0  0  0  0  0  0  0  0  0  0  0
  -15.3170  -27.2200   -7.8010 C   0  0  0  0  0  0  0  0  0  0  0  0
  -16.3120  -26.5570   -8.7470 C   0  0  2  0  0  0  0  0  0  0  0  0
  -17.5430  -26.2780   -7.9300 C   0  0  0  0  0  0  0  0  0  0  0  0
  -18.6560  -26.6670   -8.5350 C   0  0  2  0  0  0  0  0  0  0  0  0
  -18.8170  -26.4390  -10.8940 O   0  0  0  0  0  0  0  0  0  0  0  0
  -18.4030  -25.5630  -10.8270 H   0  0  0  0  0  0  0  0  0  0  0  0
  -19.8890  -26.5320   -7.9450 O   0  0  0  0  0  0  0  0  0  0  0  0
  -19.9460  -25.7120   -6.7750 C   0  0  0  0  0  0  0  0  0  0  0  0
  1 22  1  6  0  0  0
  1  2  1  0  0  0  0
  1 21  1  0  0  0  0
  2 19  1  1  0  0  0
  3  2  1  0  0  0  0
  4  3  2  0  0  0  0
  5  4  1  0  0  0  0
  6  5  1  0  0  0  0
  7  8  1  0  0  0  0
  7  6  1  0  0  0  0
  8  9  1  0  0  0  0
  9  5  2  0  0  0  0
  9 10  1  0  0  0  0
 10 11  2  0  0  0  0
 11  3  1  0  0  0  0
 11 12  1  0  0  0  0
 12 13  1  0  0  0  0
 13 14  1  0  0  0  0
 14 19  1  1  0  0  0
 14 16  1  0  0  0  0
 15 14  1  0  0  0  0
 16 17  1  0  0  0  0
 18 17  1  0  0  0  0
 19 20  1  1  0  0  0
 19 18  1  0  0  0  0
 21 24  1  1  0  0  0
 21 20  1  0  0  0  0
 22 23  1  0  0  0  0
 24 25  1  0  0  0  0
M  END
>  <minimizedAffinity>
-7.51620531

$$$$

 OpenBabel12271914503D

 25 29  0  0  1  0  0  0  0  0999 V2000
  -18.4850  -26.8940  -10.3220 C   0  0  1  0  0  0  0  0  0  0  0  0
  -17.1400  -27.0460   -9.5610 C   0  0  1  0  0  0  0  0  0  0  0  0
  -15.9580  -26.5460  -10.3410 C   0  0  0  0  0  0  0  0  0  0  0  0
  -15.9810  -26.8740  -11.7110 C   0  0  0  0  0  0  0  0  0  0  0  0
  -14.9380  -26.4600  -12.5180 C   0  0  0  0  0  0  0  0  0  0  0  0
  -14.8160  -26.6520  -13.8660 O   0  0  0  0  0  0  0  0  0  0  0  0
  -13.4580  -26.2220  -14.1340 C   0  0  0  0  0  0  0  0  0  0  0  0
  -12.9800  -25.4480  -13.0110 O   0  0  0  0  0  0  0  0  0  0  0  0
  -13.8820  -25.7710  -12.0380 C   0  0  0  0  0  0  0  0  0  0  0  0
  -13.8120  -25.4590  -10.6960 C   0  0  0  0  0  0  0  0  0  0  0  0
  -14.8470  -25.8580   -9.8390 C   0  0  0  0  0  0  0  0  0  0  0  0
  -14.6460  -25.4490   -8.4150 C   0  0  0  0  0  0  0  0  0  0  0  0
  -15.7900  -24.5700   -7.9910 C   0  0  0  0  0  0  0  0  0  0  0  0
  -17.0630  -25.2440   -7.6660 N   0  0  2  0  0  0  0  0  0  0  0  0
  -17.8030  -24.6030   -8.0080 H   0  0  0  0  0  0  0  0  0  0  0  0
  -17.2560  -25.3450   -6.1840 C   0  0  0  0  0  0  0  0  0  0  0  0
  -16.7660  -26.7320   -5.8140 C   0  0  0  0  0  0  0  0  0  0  0  0
  -16.8550  -27.5570   -7.0780 C   0  0  0  0  0  0  0  0  0  0  0  0
  -17.4140  -26.6030   -8.1280 C   0  0  2  0  0  0  0  0  0  0  0  0
  -18.9110  -26.7230   -8.0470 C   0  0  0  0  0  0  0  0  0  0  0  0
  -19.4770  -26.8740   -9.2350 C   0  0  2  0  0  0  0  0  0  0  0  0
  -18.5580  -25.7180  -11.0950 O   0  0  0  0  0  0  0  0  0  0  0  0
  -18.4490  -24.9300  -10.5390 H   0  0  0  0  0  0  0  0  0  0  0  0
  -20.8330  -27.0330   -9.3780 O   0  0  0  0  0  0  0  0  0  0  0  0
  -21.6590  -26.1130   -8.6610 C   0  0  0  0  0  0  0  0  0  0  0  0
  1 22  1  1  0  0  0
  1  2  1  0  0  0  0
  1 21  1  0  0  0  0
  2 19  1  1  0  0  0
  3 11  1  0  0  0  0
  3  2  1  0  0  0  0
  4  3  2  0  0  0  0
  5  9  2  0  0  0  0
  5  4  1  0  0  0  0
  6  5  1  0  0  0  0
  7  6  1  0  0  0  0
  7  8  1  0  0  0  0
  8  9  1  0  0  0  0
  9 10  1  0  0  0  0
 10 11  2  0  0  0  0
 11 12  1  0  0  0  0
 12 13  1  0  0  0  0
 13 14  1  0  0  0  0
 14 19  1  6  0  0  0
 14 16  1  0  0  0  0
 15 14  1  0  0  0  0
 16 17  1  0  0  0  0
 18 17  1  0  0  0  0
 19 20  1  1  0  0  0
 19 18  1  0  0  0  0
 21 24  1  1  0  0  0
 21 20  1  0  0  0  0
 22 23  1  0  0  0  0
 24 25  1  0  0  0  0
M  END
>  <minimizedAffinity>
-7.50547886

$$$$

 OpenBabel12271914503D

 25 29  0  0  1  0  0  0  0  0999 V2000
  -14.1750  -26.3560  -11.5600 C   0  0  1  0  0  0  0  0  0  0  0  0
  -15.4470  -27.2160  -11.3250 C   0  0  1  0  0  0  0  0  0  0  0  0
  -15.9190  -27.1990   -9.8990 C   0  0  0  0  0  0  0  0  0  0  0  0
  -14.8880  -27.2730   -8.9420 C   0  0  0  0  0  0  0  0  0  0  0  0
  -15.2160  -27.2640   -7.5990 C   0  0  0  0  0  0  0  0  0  0  0  0
  -14.3500  -27.2880   -6.5410 O   0  0  0  0  0  0  0  0  0  0  0  0
  -15.2290  -27.4890   -5.4060 C   0  0  0  0  0  0  0  0  0  0  0  0
  -16.5870  -27.1940   -5.8050 O   0  0  0  0  0  0  0  0  0  0  0  0
  -16.4940  -27.2120   -7.1680 C   0  0  0  0  0  0  0  0  0  0  0  0
  -17.5300  -27.1700   -8.0770 C   0  0  0  0  0  0  0  0  0  0  0  0
  -17.2440  -27.1760   -9.4510 C   0  0  0  0  0  0  0  0  0  0  0  0
  -18.4580  -27.1210  -10.3210 C   0  0  0  0  0  0  0  0  0  0  0  0
  -18.3870  -25.8910  -11.1840 C   0  0  0  0  0  0  0  0  0  0  0  0
  -17.4920  -25.9520  -12.3570 N   0  0  2  0  0  0  0  0  0  0  0  0
  -17.0850  -25.0010  -12.4350 H   0  0  0  0  0  0  0  0  0  0  0  0
  -18.2700  -26.1730  -13.6170 C   0  0  0  0  0  0  0  0  0  0  0  0
  -18.2100  -27.6690  -13.8630 C   0  0  0  0  0  0  0  0  0  0  0  0
  -16.9870  -28.1640  -13.1240 C   0  0  0  0  0  0  0  0  0  0  0  0
  -16.3800  -26.9160  -12.4920 C   0  0  2  0  0  0  0  0  0  0  0  0
  -15.4300  -26.3510  -13.5120 C   0  0  0  0  0  0  0  0  0  0  0  0
  -14.2480  -26.0490  -12.9960 C   0  0  2  0  0  0  0  0  0  0  0  0
  -14.1510  -25.1750  -10.7900 O   0  0  0  0  0  0  0  0  0  0  0  0
  -14.9190  -24.6160  -10.9880 H   0  0  0  0  0  0  0  0  0  0  0  0
  -13.2260  -25.5490  -13.7660 O   0  0  0  0  0  0  0  0  0  0  0  0
  -13.5150  -25.3500  -15.1530 C   0  0  0  0  0  0  0  0  0  0  0  0
  1  2  1  0  0  0  0
  1 22  1  1  0  0  0
  2 19  1  6  0  0  0
  2  3  1  0  0  0  0
  3 11  2  0  0  0  0
  3  4  1  0  0  0  0
  4  5  2  0  0  0  0
  5  9  1  0  0  0  0
  5  6  1  0  0  0  0
  6  7  1  0  0  0  0
  8  7  1  0  0  0  0
  9  8  1  0  0  0  0
 10  9  2  0  0  0  0
 11 10  1  0  0  0  0
 12 11  1  0  0  0  0
 13 12  1  0  0  0  0
 14 19  1  1  0  0  0
 14 13  1  0  0  0  0
 15 14  1  0  0  0  0
 16 14  1  0  0  0  0
 17 16  1  0  0  0  0
 17 18  1  0  0  0  0
 18 19  1  0  0  0  0
 19 20  1  6  0  0  0
 20 21  1  0  0  0  0
 21 24  1  6  0  0  0
 21  1  1  0  0  0  0
 23 22  1  0  0  0  0
 25 24  1  0  0  0  0
M  END
>  <minimizedAffinity>
-7.498209

$$$$
