
 OpenBabel12271914383D

 24 27  0  0  0  0  0  0  0  0999 V2000
  -16.1180  -25.5550  -10.0330 N   0  0  0  0  0  0  0  0  0  0  0  0
  -17.0440  -26.3420  -10.6670 C   0  0  0  0  0  0  0  0  0  0  0  0
  -18.3140  -26.5130  -10.1570 N   0  0  0  0  0  0  0  0  0  0  0  0
  -18.5740  -27.7400   -9.3790 C   0  0  0  0  0  0  0  0  0  0  0  0
  -20.0870  -28.0520   -9.3450 C   0  0  0  0  0  0  0  0  0  0  0  0
  -20.6130  -28.2180  -10.7320 N   0  0  0  0  0  0  0  0  0  0  0  0
  -21.6370  -28.2460  -10.7000 H   0  0  0  0  0  0  0  0  0  0  0  0
  -20.3040  -29.1260  -11.1270 H   0  0  0  0  0  0  0  0  0  0  0  0
  -20.1810  -27.1370  -11.6850 C   0  0  0  0  0  0  0  0  0  0  0  0
  -19.4350  -26.0060  -10.9560 C   0  0  0  0  0  0  0  0  0  0  0  0
  -16.5620  -26.8180  -11.7850 N   0  0  0  0  0  0  0  0  0  0  0  0
  -15.2760  -26.3770  -11.8880 C   0  0  0  0  0  0  0  0  0  0  0  0
  -14.3030  -26.6020  -12.8650 C   0  0  0  0  0  0  0  0  0  0  0  0
  -13.0450  -26.0160  -12.7230 C   0  0  0  0  0  0  0  0  0  0  0  0
  -12.7540  -25.2240  -11.6150 C   0  0  0  0  0  0  0  0  0  0  0  0
  -13.7150  -25.0110  -10.6340 C   0  0  0  0  0  0  0  0  0  0  0  0
  -14.9730  -25.5820  -10.7850 C   0  0  0  0  0  0  0  0  0  0  0  0
  -16.2760  -24.9350   -8.7380 C   0  0  0  0  0  0  0  0  0  0  0  0
  -15.9490  -25.8450   -7.5940 C   0  0  0  0  0  0  0  0  0  0  0  0
  -14.7250  -26.4940   -7.4880 C   0  0  0  0  0  0  0  0  0  0  0  0
  -14.4310  -27.2830   -6.3850 C   0  0  0  0  0  0  0  0  0  0  0  0
  -15.3550  -27.4510   -5.3690 C   0  0  0  0  0  0  0  0  0  0  0  0
  -16.5760  -26.8150   -5.4700 C   0  0  0  0  0  0  0  0  0  0  0  0
  -16.8730  -26.0260   -6.5690 C   0  0  0  0  0  0  0  0  0  0  0  0
  1 18  1  0  0  0  0
  2  3  1  0  0  0  0
  2  1  1  0  0  0  0
  3  4  1  0  0  0  0
  4  5  1  0  0  0  0
  6  7  1  0  0  0  0
  6  5  1  0  0  0  0
  8  6  1  0  0  0  0
  9 10  1  0  0  0  0
  9  6  1  0  0  0  0
 10  3  1  0  0  0  0
 11  2  2  0  0  0  0
 12 11  2  0  0  0  0
 12 17  1  0  0  0  0
 13 14  1  0  0  0  0
 13 12  1  0  0  0  0
 14 15  2  0  0  0  0
 15 16  1  0  0  0  0
 17 16  2  0  0  0  0
 17  1  1  0  0  0  0
 18 19  1  0  0  0  0
 19 20  2  0  0  0  0
 19 24  1  0  0  0  0
 20 21  1  0  0  0  0
 21 22  2  0  0  0  0
 23 22  1  0  0  0  0
 24 23  2  0  0  0  0
M  END
>  <minimizedAffinity>
-7.91289139

$$$$

 OpenBabel12271914383D

 24 27  0  0  0  0  0  0  0  0999 V2000
  -18.3300  -25.8190   -8.4630 N   0  0  0  0  0  0  0  0  0  0  0  0
  -18.2200  -26.3610   -9.7180 C   0  0  0  0  0  0  0  0  0  0  0  0
  -17.0030  -26.4550  -10.3580 N   0  0  0  0  0  0  0  0  0  0  0  0
  -16.6740  -25.4100  -11.3480 C   0  0  0  0  0  0  0  0  0  0  0  0
  -15.5940  -25.9160  -12.3310 C   0  0  0  0  0  0  0  0  0  0  0  0
  -16.0690  -27.1420  -13.0370 N   0  0  0  0  0  0  0  0  0  0  0  0
  -15.2830  -27.5610  -13.5450 H   0  0  0  0  0  0  0  0  0  0  0  0
  -16.7830  -26.8950  -13.7470 H   0  0  0  0  0  0  0  0  0  0  0  0
  -16.6710  -28.1780  -12.1270 C   0  0  0  0  0  0  0  0  0  0  0  0
  -16.4950  -27.8010  -10.6460 C   0  0  0  0  0  0  0  0  0  0  0  0
  -19.3810  -26.7900  -10.1410 N   0  0  0  0  0  0  0  0  0  0  0  0
  -20.2950  -26.4980   -9.1730 C   0  0  0  0  0  0  0  0  0  0  0  0
  -21.6730  -26.7160   -9.1160 C   0  0  0  0  0  0  0  0  0  0  0  0
  -22.3810  -26.3140   -7.9830 C   0  0  0  0  0  0  0  0  0  0  0  0
  -21.7260  -25.6920   -6.9210 C   0  0  0  0  0  0  0  0  0  0  0  0
  -20.3570  -25.4620   -6.9830 C   0  0  0  0  0  0  0  0  0  0  0  0
  -19.6510  -25.8770   -8.1050 C   0  0  0  0  0  0  0  0  0  0  0  0
  -17.2700  -25.1750   -7.7230 C   0  0  0  0  0  0  0  0  0  0  0  0
  -16.4950  -26.1110   -6.8470 C   0  0  0  0  0  0  0  0  0  0  0  0
  -15.2200  -26.5530   -7.1760 C   0  0  0  0  0  0  0  0  0  0  0  0
  -14.5060  -27.3720   -6.3140 C   0  0  0  0  0  0  0  0  0  0  0  0
  -15.0520  -27.7790   -5.1100 C   0  0  0  0  0  0  0  0  0  0  0  0
  -16.3210  -27.3490   -4.7770 C   0  0  0  0  0  0  0  0  0  0  0  0
  -17.0370  -26.5300   -5.6340 C   0  0  0  0  0  0  0  0  0  0  0  0
  1 17  1  0  0  0  0
  1 18  1  0  0  0  0
  2  1  1  0  0  0  0
  3  2  1  0  0  0  0
  4  3  1  0  0  0  0
  5  4  1  0  0  0  0
  6  5  1  0  0  0  0
  6  9  1  0  0  0  0
  7  6  1  0  0  0  0
  8  6  1  0  0  0  0
  9 10  1  0  0  0  0
 10  3  1  0  0  0  0
 11  2  2  0  0  0  0
 11 12  2  0  0  0  0
 12 13  1  0  0  0  0
 12 17  1  0  0  0  0
 13 14  1  0  0  0  0
 14 15  2  0  0  0  0
 16 15  1  0  0  0  0
 17 16  2  0  0  0  0
 18 19  1  0  0  0  0
 19 24  1  0  0  0  0
 20 19  2  0  0  0  0
 20 21  1  0  0  0  0
 21 22  2  0  0  0  0
 22 23  1  0  0  0  0
 24 23  2  0  0  0  0
M  END
>  <minimizedAffinity>
-7.77944088

$$$$

 OpenBabel12271914383D

 24 27  0  0  0  0  0  0  0  0999 V2000
  -18.3260  -27.3630   -8.8150 N   0  0  0  0  0  0  0  0  0  0  0  0
  -19.6030  -26.9280   -9.0590 C   0  0  0  0  0  0  0  0  0  0  0  0
  -20.2070  -27.1180  -10.2840 N   0  0  0  0  0  0  0  0  0  0  0  0
  -20.1990  -25.9830  -11.2290 C   0  0  0  0  0  0  0  0  0  0  0  0
  -21.3250  -26.1390  -12.2750 C   0  0  0  0  0  0  0  0  0  0  0  0
  -22.6540  -26.2180  -11.5990 N   0  0  0  0  0  0  0  0  0  0  0  0
  -23.3620  -26.4990  -12.2860 H   0  0  0  0  0  0  0  0  0  0  0  0
  -22.9340  -25.2840  -11.2480 H   0  0  0  0  0  0  0  0  0  0  0  0
  -22.6940  -27.1730  -10.4370 C   0  0  0  0  0  0  0  0  0  0  0  0
  -21.3910  -27.9840  -10.3260 C   0  0  0  0  0  0  0  0  0  0  0  0
  -20.1250  -26.3940   -7.9860 N   0  0  0  0  0  0  0  0  0  0  0  0
  -19.1710  -26.4330   -7.0130 C   0  0  0  0  0  0  0  0  0  0  0  0
  -19.1880  -25.9830   -5.6910 C   0  0  0  0  0  0  0  0  0  0  0  0
  -18.0540  -26.1540   -4.8970 C   0  0  0  0  0  0  0  0  0  0  0  0
  -16.9110  -26.7580   -5.4160 C   0  0  0  0  0  0  0  0  0  0  0  0
  -16.8860  -27.1930   -6.7350 C   0  0  0  0  0  0  0  0  0  0  0  0
  -18.0220  -27.0360   -7.5200 C   0  0  0  0  0  0  0  0  0  0  0  0
  -17.4220  -27.9260   -9.7910 C   0  0  0  0  0  0  0  0  0  0  0  0
  -16.3090  -27.0020  -10.1800 C   0  0  0  0  0  0  0  0  0  0  0  0
  -15.0070  -27.1740   -9.7280 C   0  0  0  0  0  0  0  0  0  0  0  0
  -13.9880  -26.3350  -10.1560 C   0  0  0  0  0  0  0  0  0  0  0  0
  -14.2470  -25.2980  -11.0350 C   0  0  0  0  0  0  0  0  0  0  0  0
  -15.5400  -25.1160  -11.4840 C   0  0  0  0  0  0  0  0  0  0  0  0
  -16.5600  -25.9520  -11.0600 C   0  0  0  0  0  0  0  0  0  0  0  0
  1 17  1  0  0  0  0
  2  1  1  0  0  0  0
  2 11  2  0  0  0  0
  3  2  1  0  0  0  0
  4  3  1  0  0  0  0
  5  6  1  0  0  0  0
  5  4  1  0  0  0  0
  6  8  1  0  0  0  0
  6  9  1  0  0  0  0
  7  6  1  0  0  0  0
  9 10  1  0  0  0  0
 10  3  1  0  0  0  0
 11 12  2  0  0  0  0
 12 13  1  0  0  0  0
 13 14  1  0  0  0  0
 15 14  2  0  0  0  0
 16 15  1  0  0  0  0
 17 12  1  0  0  0  0
 17 16  2  0  0  0  0
 18  1  1  0  0  0  0
 19 18  1  0  0  0  0
 19 20  2  0  0  0  0
 21 20  1  0  0  0  0
 22 21  2  0  0  0  0
 23 24  2  0  0  0  0
 23 22  1  0  0  0  0
 24 19  1  0  0  0  0
M  END
>  <minimizedAffinity>
-7.71814537

$$$$

 OpenBabel12271914383D

 24 27  0  0  0  0  0  0  0  0999 V2000
  -16.8440  -26.4560   -9.7700 N   0  0  0  0  0  0  0  0  0  0  0  0
  -17.9490  -27.1810   -9.4060 C   0  0  0  0  0  0  0  0  0  0  0  0
  -19.0040  -27.3710  -10.2720 N   0  0  0  0  0  0  0  0  0  0  0  0
  -20.1780  -26.4880  -10.1170 C   0  0  0  0  0  0  0  0  0  0  0  0
  -21.4310  -27.1370  -10.7470 C   0  0  0  0  0  0  0  0  0  0  0  0
  -21.7100  -28.4560  -10.1070 N   0  0  0  0  0  0  0  0  0  0  0  0
  -22.4270  -28.9470  -10.6500 H   0  0  0  0  0  0  0  0  0  0  0  0
  -22.1000  -28.3190   -9.1560 H   0  0  0  0  0  0  0  0  0  0  0  0
  -20.5000  -29.3420   -9.9790 C   0  0  0  0  0  0  0  0  0  0  0  0
  -19.2820  -28.7450  -10.7050 C   0  0  0  0  0  0  0  0  0  0  0  0
  -17.8070  -27.6690   -8.2010 N   0  0  0  0  0  0  0  0  0  0  0  0
  -16.6040  -27.2350   -7.7300 C   0  0  0  0  0  0  0  0  0  0  0  0
  -15.9690  -27.4410   -6.5040 C   0  0  0  0  0  0  0  0  0  0  0  0
  -14.7150  -26.8720   -6.2800 C   0  0  0  0  0  0  0  0  0  0  0  0
  -14.1030  -26.0970   -7.2630 C   0  0  0  0  0  0  0  0  0  0  0  0
  -14.7400  -25.8780   -8.4790 C   0  0  0  0  0  0  0  0  0  0  0  0
  -15.9820  -26.4580   -8.7050 C   0  0  0  0  0  0  0  0  0  0  0  0
  -16.6890  -25.7060  -10.9950 C   0  0  0  0  0  0  0  0  0  0  0  0
  -15.7950  -26.3720  -11.9960 C   0  0  0  0  0  0  0  0  0  0  0  0
  -16.2100  -27.4580  -12.7560 C   0  0  0  0  0  0  0  0  0  0  0  0
  -15.3780  -28.0140  -13.7180 C   0  0  0  0  0  0  0  0  0  0  0  0
  -14.1090  -27.5070  -13.9340 C   0  0  0  0  0  0  0  0  0  0  0  0
  -13.6860  -26.4320  -13.1780 C   0  0  0  0  0  0  0  0  0  0  0  0
  -14.5140  -25.8730  -12.2180 C   0  0  0  0  0  0  0  0  0  0  0  0
  1  2  1  0  0  0  0
  1 17  1  0  0  0  0
  2 11  2  0  0  0  0
  3  4  1  0  0  0  0
  3  2  1  0  0  0  0
  5  4  1  0  0  0  0
  5  6  1  0  0  0  0
  6  9  1  0  0  0  0
  6  8  1  0  0  0  0
  7  6  1  0  0  0  0
 10  3  1  0  0  0  0
 10  9  1  0  0  0  0
 11 12  2  0  0  0  0
 12 13  1  0  0  0  0
 13 14  1  0  0  0  0
 15 14  2  0  0  0  0
 16 15  1  0  0  0  0
 17 16  2  0  0  0  0
 17 12  1  0  0  0  0
 18  1  1  0  0  0  0
 19 18  1  0  0  0  0
 20 19  2  0  0  0  0
 21 20  1  0  0  0  0
 22 21  2  0  0  0  0
 22 23  1  0  0  0  0
 23 24  2  0  0  0  0
 24 19  1  0  0  0  0
M  END
>  <minimizedAffinity>
-7.63602972

$$$$

 OpenBabel12271914383D

 24 27  0  0  0  0  0  0  0  0999 V2000
  -16.8090  -27.5930   -9.3730 N   0  0  0  0  0  0  0  0  0  0  0  0
  -16.6720  -27.5260  -10.7360 C   0  0  0  0  0  0  0  0  0  0  0  0
  -17.6700  -27.9600  -11.5820 N   0  0  0  0  0  0  0  0  0  0  0  0
  -17.5310  -29.3130  -12.1580 C   0  0  0  0  0  0  0  0  0  0  0  0
  -18.3790  -29.4450  -13.4430 C   0  0  0  0  0  0  0  0  0  0  0  0
  -17.9570  -28.4270  -14.4500 N   0  0  0  0  0  0  0  0  0  0  0  0
  -18.6400  -28.4110  -15.2150 H   0  0  0  0  0  0  0  0  0  0  0  0
  -17.0470  -28.6920  -14.8690 H   0  0  0  0  0  0  0  0  0  0  0  0
  -17.8140  -27.0370  -13.8930 C   0  0  0  0  0  0  0  0  0  0  0  0
  -18.3110  -26.9570  -12.4380 C   0  0  0  0  0  0  0  0  0  0  0  0
  -15.5350  -26.9670  -11.0610 N   0  0  0  0  0  0  0  0  0  0  0  0
  -14.8780  -26.6870   -9.9010 C   0  0  0  0  0  0  0  0  0  0  0  0
  -13.6260  -26.1120   -9.6700 C   0  0  0  0  0  0  0  0  0  0  0  0
  -13.1880  -25.9350   -8.3570 C   0  0  0  0  0  0  0  0  0  0  0  0
  -13.9830  -26.3350   -7.2850 C   0  0  0  0  0  0  0  0  0  0  0  0
  -15.2220  -26.9210   -7.5130 C   0  0  0  0  0  0  0  0  0  0  0  0
  -15.6640  -27.0830   -8.8210 C   0  0  0  0  0  0  0  0  0  0  0  0
  -17.8970  -28.2210   -8.6610 C   0  0  0  0  0  0  0  0  0  0  0  0
  -18.9320  -27.2550   -8.1740 C   0  0  0  0  0  0  0  0  0  0  0  0
  -20.0550  -26.9290   -8.9240 C   0  0  0  0  0  0  0  0  0  0  0  0
  -21.0260  -26.0760   -8.4190 C   0  0  0  0  0  0  0  0  0  0  0  0
  -20.8930  -25.5200   -7.1590 C   0  0  0  0  0  0  0  0  0  0  0  0
  -19.7770  -25.8330   -6.4100 C   0  0  0  0  0  0  0  0  0  0  0  0
  -18.8060  -26.6850   -6.9100 C   0  0  0  0  0  0  0  0  0  0  0  0
  1 17  1  0  0  0  0
  1 18  1  0  0  0  0
  2  1  1  0  0  0  0
  3  2  1  0  0  0  0
  4  3  1  0  0  0  0
  5  4  1  0  0  0  0
  6  9  1  0  0  0  0
  6  5  1  0  0  0  0
  7  6  1  0  0  0  0
  8  6  1  0  0  0  0
  9 10  1  0  0  0  0
 10  3  1  0  0  0  0
 11  2  2  0  0  0  0
 11 12  2  0  0  0  0
 12 13  1  0  0  0  0
 12 17  1  0  0  0  0
 13 14  1  0  0  0  0
 14 15  2  0  0  0  0
 16 15  1  0  0  0  0
 17 16  2  0  0  0  0
 18 19  1  0  0  0  0
 19 24  2  0  0  0  0
 20 21  2  0  0  0  0
 20 19  1  0  0  0  0
 21 22  1  0  0  0  0
 22 23  2  0  0  0  0
 24 23  1  0  0  0  0
M  END
>  <minimizedAffinity>
-7.62902546

$$$$

 OpenBabel12271914383D

 24 27  0  0  0  0  0  0  0  0999 V2000
  -15.9470  -26.3690  -11.9230 N   0  0  0  0  0  0  0  0  0  0  0  0
  -17.2560  -26.7770  -11.9200 C   0  0  0  0  0  0  0  0  0  0  0  0
  -18.1970  -26.1720  -11.1140 N   0  0  0  0  0  0  0  0  0  0  0  0
  -18.5310  -26.8400   -9.8400 C   0  0  0  0  0  0  0  0  0  0  0  0
  -19.9160  -26.3790   -9.3330 C   0  0  0  0  0  0  0  0  0  0  0  0
  -20.9670  -26.6830  -10.3470 N   0  0  0  0  0  0  0  0  0  0  0  0
  -21.8390  -26.2160  -10.0760 H   0  0  0  0  0  0  0  0  0  0  0  0
  -21.1680  -27.7000  -10.3630 H   0  0  0  0  0  0  0  0  0  0  0  0
  -20.6060  -26.2690  -11.7480 C   0  0  0  0  0  0  0  0  0  0  0  0
  -19.2960  -25.4620  -11.7780 C   0  0  0  0  0  0  0  0  0  0  0  0
  -17.4460  -27.7320  -12.7920 N   0  0  0  0  0  0  0  0  0  0  0  0
  -16.2390  -27.9990  -13.3660 C   0  0  0  0  0  0  0  0  0  0  0  0
  -15.8690  -28.9330  -14.3370 C   0  0  0  0  0  0  0  0  0  0  0  0
  -14.5400  -28.9930  -14.7550 C   0  0  0  0  0  0  0  0  0  0  0  0
  -13.5840  -28.1410  -14.2040 C   0  0  0  0  0  0  0  0  0  0  0  0
  -13.9470  -27.2220  -13.2270 C   0  0  0  0  0  0  0  0  0  0  0  0
  -15.2750  -27.1520  -12.8240 C   0  0  0  0  0  0  0  0  0  0  0  0
  -15.3610  -25.3940  -11.0320 C   0  0  0  0  0  0  0  0  0  0  0  0
  -15.0270  -25.9440   -9.6790 C   0  0  0  0  0  0  0  0  0  0  0  0
  -14.2780  -27.1010   -9.5110 C   0  0  0  0  0  0  0  0  0  0  0  0
  -13.9350  -27.5500   -8.2440 C   0  0  0  0  0  0  0  0  0  0  0  0
  -14.3420  -26.8610   -7.1150 C   0  0  0  0  0  0  0  0  0  0  0  0
  -15.0930  -25.7130   -7.2720 C   0  0  0  0  0  0  0  0  0  0  0  0
  -15.4360  -25.2600   -8.5360 C   0  0  0  0  0  0  0  0  0  0  0  0
  1  2  1  0  0  0  0
  1 18  1  0  0  0  0
  2  3  1  0  0  0  0
  3  4  1  0  0  0  0
  4  5  1  0  0  0  0
  6  7  1  0  0  0  0
  6  5  1  0  0  0  0
  8  6  1  0  0  0  0
  9  6  1  0  0  0  0
 10  9  1  0  0  0  0
 10  3  1  0  0  0  0
 11  2  2  0  0  0  0
 12 17  1  0  0  0  0
 12 11  2  0  0  0  0
 13 12  1  0  0  0  0
 14 13  1  0  0  0  0
 14 15  2  0  0  0  0
 15 16  1  0  0  0  0
 16 17  2  0  0  0  0
 17  1  1  0  0  0  0
 18 19  1  0  0  0  0
 19 20  2  0  0  0  0
 19 24  1  0  0  0  0
 20 21  1  0  0  0  0
 21 22  2  0  0  0  0
 23 22  1  0  0  0  0
 24 23  2  0  0  0  0
M  END
>  <minimizedAffinity>
-7.58162308

$$$$

 OpenBabel12271914383D

 24 27  0  0  0  0  0  0  0  0999 V2000
  -16.4940  -26.1610   -9.1120 N   0  0  0  0  0  0  0  0  0  0  0  0
  -15.2610  -26.2780   -9.7000 C   0  0  0  0  0  0  0  0  0  0  0  0
  -15.0710  -25.9940  -11.0360 N   0  0  0  0  0  0  0  0  0  0  0  0
  -15.0480  -27.1330  -11.9760 C   0  0  0  0  0  0  0  0  0  0  0  0
  -14.3150  -26.7460  -13.2800 C   0  0  0  0  0  0  0  0  0  0  0  0
  -12.9170  -26.3160  -12.9810 N   0  0  0  0  0  0  0  0  0  0  0  0
  -12.5090  -25.8980  -13.8230 H   0  0  0  0  0  0  0  0  0  0  0  0
  -12.3310  -27.1370  -12.7430 H   0  0  0  0  0  0  0  0  0  0  0  0
  -12.8070  -25.3350  -11.8450 C   0  0  0  0  0  0  0  0  0  0  0  0
  -14.1930  -24.8660  -11.3670 C   0  0  0  0  0  0  0  0  0  0  0  0
  -14.3580  -26.6240   -8.8210 N   0  0  0  0  0  0  0  0  0  0  0  0
  -14.9990  -26.7820   -7.6280 C   0  0  0  0  0  0  0  0  0  0  0  0
  -14.5200  -27.1610   -6.3710 C   0  0  0  0  0  0  0  0  0  0  0  0
  -15.4090  -27.2430   -5.2990 C   0  0  0  0  0  0  0  0  0  0  0  0
  -16.7610  -26.9600   -5.4760 C   0  0  0  0  0  0  0  0  0  0  0  0
  -17.2420  -26.5980   -6.7290 C   0  0  0  0  0  0  0  0  0  0  0  0
  -16.3530  -26.5010   -7.7920 C   0  0  0  0  0  0  0  0  0  0  0  0
  -17.7350  -25.8770   -9.7950 C   0  0  0  0  0  0  0  0  0  0  0  0
  -18.6080  -27.0810   -9.9770 C   0  0  0  0  0  0  0  0  0  0  0  0
  -18.0870  -28.3480  -10.2060 C   0  0  0  0  0  0  0  0  0  0  0  0
  -18.9210  -29.4520  -10.3110 C   0  0  0  0  0  0  0  0  0  0  0  0
  -20.2940  -29.3150  -10.2010 C   0  0  0  0  0  0  0  0  0  0  0  0
  -20.8200  -28.0580   -9.9800 C   0  0  0  0  0  0  0  0  0  0  0  0
  -19.9910  -26.9530   -9.8730 C   0  0  0  0  0  0  0  0  0  0  0  0
  1 17  1  0  0  0  0
  2  1  1  0  0  0  0
  2 11  2  0  0  0  0
  3  2  1  0  0  0  0
  4  3  1  0  0  0  0
  5  6  1  0  0  0  0
  5  4  1  0  0  0  0
  6  8  1  0  0  0  0
  6  9  1  0  0  0  0
  7  6  1  0  0  0  0
  9 10  1  0  0  0  0
 10  3  1  0  0  0  0
 11 12  2  0  0  0  0
 12 13  1  0  0  0  0
 13 14  1  0  0  0  0
 15 14  2  0  0  0  0
 16 15  1  0  0  0  0
 17 12  1  0  0  0  0
 17 16  2  0  0  0  0
 18  1  1  0  0  0  0
 19 24  2  0  0  0  0
 19 18  1  0  0  0  0
 20 19  1  0  0  0  0
 21 20  2  0  0  0  0
 21 22  1  0  0  0  0
 22 23  2  0  0  0  0
 23 24  1  0  0  0  0
M  END
>  <minimizedAffinity>
-7.49462652

$$$$

 OpenBabel12271914383D

 24 27  0  0  0  0  0  0  0  0999 V2000
  -16.4100  -27.3960   -9.6890 N   0  0  0  0  0  0  0  0  0  0  0  0
  -16.8200  -27.1490  -10.9740 C   0  0  0  0  0  0  0  0  0  0  0  0
  -18.0690  -27.5280  -11.4170 N   0  0  0  0  0  0  0  0  0  0  0  0
  -18.1660  -28.7870  -12.1830 C   0  0  0  0  0  0  0  0  0  0  0  0
  -19.4500  -28.8020  -13.0420 C   0  0  0  0  0  0  0  0  0  0  0  0
  -19.4590  -27.6420  -13.9820 N   0  0  0  0  0  0  0  0  0  0  0  0
  -20.3870  -27.5680  -14.4110 H   0  0  0  0  0  0  0  0  0  0  0  0
  -18.7870  -27.8010  -14.7540 H   0  0  0  0  0  0  0  0  0  0  0  0
  -19.1110  -26.3280  -13.3370 C   0  0  0  0  0  0  0  0  0  0  0  0
  -18.9970  -26.4610  -11.8080 C   0  0  0  0  0  0  0  0  0  0  0  0
  -15.9030  -26.4910  -11.6350 N   0  0  0  0  0  0  0  0  0  0  0  0
  -14.8430  -26.3250  -10.7940 C   0  0  0  0  0  0  0  0  0  0  0  0
  -13.6020  -25.7150  -10.9910 C   0  0  0  0  0  0  0  0  0  0  0  0
  -12.6840  -25.6810   -9.9410 C   0  0  0  0  0  0  0  0  0  0  0  0
  -12.9930  -26.2580   -8.7110 C   0  0  0  0  0  0  0  0  0  0  0  0
  -14.2220  -26.8780   -8.5180 C   0  0  0  0  0  0  0  0  0  0  0  0
  -15.1410  -26.8970   -9.5600 C   0  0  0  0  0  0  0  0  0  0  0  0
  -17.1300  -28.1690   -8.7040 C   0  0  0  0  0  0  0  0  0  0  0  0
  -17.8300  -27.3320   -7.6780 C   0  0  0  0  0  0  0  0  0  0  0  0
  -17.2210  -26.9490   -6.4900 C   0  0  0  0  0  0  0  0  0  0  0  0
  -17.8760  -26.1230   -5.5880 C   0  0  0  0  0  0  0  0  0  0  0  0
  -19.1570  -25.6690   -5.8460 C   0  0  0  0  0  0  0  0  0  0  0  0
  -19.7720  -26.0490   -7.0220 C   0  0  0  0  0  0  0  0  0  0  0  0
  -19.1210  -26.8730   -7.9260 C   0  0  0  0  0  0  0  0  0  0  0  0
  1 17  1  0  0  0  0
  1 18  1  0  0  0  0
  2  1  1  0  0  0  0
  3  2  1  0  0  0  0
  4  3  1  0  0  0  0
  5  4  1  0  0  0  0
  6  9  1  0  0  0  0
  6  5  1  0  0  0  0
  7  6  1  0  0  0  0
  8  6  1  0  0  0  0
  9 10  1  0  0  0  0
 10  3  1  0  0  0  0
 11  2  2  0  0  0  0
 11 12  2  0  0  0  0
 12 17  1  0  0  0  0
 13 12  1  0  0  0  0
 13 14  1  0  0  0  0
 14 15  2  0  0  0  0
 15 16  1  0  0  0  0
 17 16  2  0  0  0  0
 18 19  1  0  0  0  0
 19 20  1  0  0  0  0
 20 21  2  0  0  0  0
 22 21  1  0  0  0  0
 23 22  2  0  0  0  0
 24 19  2  0  0  0  0
 24 23  1  0  0  0  0
M  END
>  <minimizedAffinity>
-7.2681756

$$$$

 OpenBabel12271914383D

 24 27  0  0  0  0  0  0  0  0999 V2000
  -18.3960  -27.4610   -8.9740 N   0  0  0  0  0  0  0  0  0  0  0  0
  -18.5840  -27.4840  -10.3320 C   0  0  0  0  0  0  0  0  0  0  0  0
  -17.7190  -28.1570  -11.1680 N   0  0  0  0  0  0  0  0  0  0  0  0
  -16.6770  -27.3630  -11.8500 C   0  0  0  0  0  0  0  0  0  0  0  0
  -16.1660  -28.1040  -13.1060 C   0  0  0  0  0  0  0  0  0  0  0  0
  -17.2930  -28.3660  -14.0490 N   0  0  0  0  0  0  0  0  0  0  0  0
  -16.9730  -29.0070  -14.7820 H   0  0  0  0  0  0  0  0  0  0  0  0
  -17.5750  -27.4890  -14.5240 H   0  0  0  0  0  0  0  0  0  0  0  0
  -18.5180  -28.9440  -13.3940 C   0  0  0  0  0  0  0  0  0  0  0  0
  -18.2570  -29.2960  -11.9190 C   0  0  0  0  0  0  0  0  0  0  0  0
  -19.6780  -26.8480  -10.6600 N   0  0  0  0  0  0  0  0  0  0  0  0
  -20.2170  -26.3550   -9.5090 C   0  0  0  0  0  0  0  0  0  0  0  0
  -21.3640  -25.5890   -9.2860 C   0  0  0  0  0  0  0  0  0  0  0  0
  -21.6920  -25.2160   -7.9820 C   0  0  0  0  0  0  0  0  0  0  0  0
  -20.8830  -25.5920   -6.9120 C   0  0  0  0  0  0  0  0  0  0  0  0
  -19.7340  -26.3420   -7.1340 C   0  0  0  0  0  0  0  0  0  0  0  0
  -19.4170  -26.7260   -8.4310 C   0  0  0  0  0  0  0  0  0  0  0  0
  -17.2530  -27.9900   -8.2680 C   0  0  0  0  0  0  0  0  0  0  0  0
  -16.0730  -27.0670   -8.2620 C   0  0  0  0  0  0  0  0  0  0  0  0
  -16.1680  -25.7410   -7.8590 C   0  0  0  0  0  0  0  0  0  0  0  0
  -15.0440  -24.9300   -7.8080 C   0  0  0  0  0  0  0  0  0  0  0  0
  -13.8020  -25.4190   -8.1690 C   0  0  0  0  0  0  0  0  0  0  0  0
  -13.6980  -26.7340   -8.5770 C   0  0  0  0  0  0  0  0  0  0  0  0
  -14.8180  -27.5480   -8.6280 C   0  0  0  0  0  0  0  0  0  0  0  0
  1 17  1  0  0  0  0
  1 18  1  0  0  0  0
  2  1  1  0  0  0  0
  3  2  1  0  0  0  0
  4  3  1  0  0  0  0
  5  4  1  0  0  0  0
  6  9  1  0  0  0  0
  6  5  1  0  0  0  0
  7  6  1  0  0  0  0
  8  6  1  0  0  0  0
  9 10  1  0  0  0  0
 10  3  1  0  0  0  0
 11  2  2  0  0  0  0
 11 12  2  0  0  0  0
 12 13  1  0  0  0  0
 12 17  1  0  0  0  0
 13 14  1  0  0  0  0
 14 15  2  0  0  0  0
 16 15  1  0  0  0  0
 17 16  2  0  0  0  0
 18 19  1  0  0  0  0
 19 20  2  0  0  0  0
 20 21  1  0  0  0  0
 22 21  2  0  0  0  0
 23 22  1  0  0  0  0
 24 23  2  0  0  0  0
 24 19  1  0  0  0  0
M  END
>  <minimizedAffinity>
-7.21565771

$$$$
