
 OpenBabel12271914493D

 25 29  0  0  1  0  0  0  0  0999 V2000
  -17.6990  -28.0080   -9.9730 C   0  0  1  0  0  0  0  0  0  0  0  0
  -16.6080  -27.5060   -9.0160 C   0  0  1  0  0  0  0  0  0  0  0  0
  -15.3590  -26.8570   -9.5570 C   0  0  0  0  0  0  0  0  0  0  0  0
  -15.1640  -26.7230  -10.9200 C   0  0  0  0  0  0  0  0  0  0  0  0
  -14.0380  -26.1120  -11.4120 C   0  0  0  0  0  0  0  0  0  0  0  0
  -13.7140  -25.8900  -12.7260 O   0  0  0  0  0  0  0  0  0  0  0  0
  -12.4110  -25.2920  -12.6770 C   0  0  0  0  0  0  0  0  0  0  0  0
  -12.0370  -25.0320  -11.3170 O   0  0  0  0  0  0  0  0  0  0  0  0
  -13.0570  -25.6110  -10.5860 C   0  0  0  0  0  0  0  0  0  0  0  0
  -13.1950  -25.7180   -9.2330 C   0  0  0  0  0  0  0  0  0  0  0  0
  -14.3420  -26.3320   -8.6910 C   0  0  0  0  0  0  0  0  0  0  0  0
  -14.3050  -26.3070   -7.1960 C   0  0  0  0  0  0  0  0  0  0  0  0
  -15.6700  -26.3390   -6.5390 C   0  0  0  0  0  0  0  0  0  0  0  0
  -16.6790  -25.5950   -7.3440 N   0  0  2  0  0  0  0  0  0  0  0  0
  -16.2090  -24.8740   -7.9140 H   0  0  0  0  0  0  0  0  0  0  0  0
  -17.7030  -24.9490   -6.4800 C   0  0  0  0  0  0  0  0  0  0  0  0
  -18.6330  -26.1030   -6.1160 C   0  0  0  0  0  0  0  0  0  0  0  0
  -18.4270  -27.1570   -7.2070 C   0  0  0  0  0  0  0  0  0  0  0  0
  -17.4660  -26.4990   -8.2040 C   0  0  2  0  0  0  0  0  0  0  0  0
  -18.2310  -25.8530   -9.3200 C   0  0  0  0  0  0  0  0  0  0  0  0
  -18.3770  -26.7130  -10.3230 C   0  0  1  0  0  0  0  0  0  0  0  0
  -17.2630  -28.7820  -11.0420 O   0  0  0  0  0  0  0  0  0  0  0  0
  -16.6110  -29.4080  -10.7170 H   0  0  0  0  0  0  0  0  0  0  0  0
  -18.9080  -26.3630  -11.5410 O   0  0  0  0  0  0  0  0  0  0  0  0
  -18.3430  -25.2580  -12.2330 C   0  0  0  0  0  0  0  0  0  0  0  0
  1 22  1  6  0  0  0
  1  2  1  0  0  0  0
  2 19  1  1  0  0  0
  3  2  1  0  0  0  0
  3 11  2  0  0  0  0
  4  3  1  0  0  0  0
  5  4  2  0  0  0  0
  5  9  1  0  0  0  0
  6  7  1  0  0  0  0
  6  5  1  0  0  0  0
  7  8  1  0  0  0  0
  8  9  1  0  0  0  0
  9 10  2  0  0  0  0
 10 11  1  0  0  0  0
 11 12  1  0  0  0  0
 12 13  1  0  0  0  0
 14 19  1  6  0  0  0
 14 13  1  0  0  0  0
 14 16  1  0  0  0  0
 15 14  1  0  0  0  0
 16 17  1  0  0  0  0
 18 17  1  0  0  0  0
 19 20  1  6  0  0  0
 19 18  1  0  0  0  0
 21 24  1  6  0  0  0
 21  1  1  0  0  0  0
 21 20  1  0  0  0  0
 22 23  1  0  0  0  0
 25 24  1  0  0  0  0
M  END
>  <minimizedAffinity>
-8.179039

$$$$

 OpenBabel12271914493D

 25 29  0  0  1  0  0  0  0  0999 V2000
  -17.1430  -26.5660  -11.1090 C   0  0  1  0  0  0  0  0  0  0  0  0
  -17.0190  -26.0020   -9.6860 C   0  0  1  0  0  0  0  0  0  0  0  0
  -18.2330  -25.9030   -8.7970 C   0  0  0  0  0  0  0  0  0  0  0  0
  -19.4780  -26.2950   -9.2520 C   0  0  0  0  0  0  0  0  0  0  0  0
  -20.5800  -26.2280   -8.4360 C   0  0  0  0  0  0  0  0  0  0  0  0
  -21.8670  -26.5950   -8.7360 O   0  0  0  0  0  0  0  0  0  0  0  0
  -22.6190  -26.2490   -7.5640 C   0  0  0  0  0  0  0  0  0  0  0  0
  -21.7370  -25.8110   -6.5210 O   0  0  0  0  0  0  0  0  0  0  0  0
  -20.5020  -25.7680   -7.1400 C   0  0  0  0  0  0  0  0  0  0  0  0
  -19.2990  -25.3650   -6.6380 C   0  0  0  0  0  0  0  0  0  0  0  0
  -18.1460  -25.4270   -7.4450 C   0  0  0  0  0  0  0  0  0  0  0  0
  -16.9390  -24.9750   -6.6860 C   0  0  0  0  0  0  0  0  0  0  0  0
  -15.6350  -25.5670   -7.1820 C   0  0  0  0  0  0  0  0  0  0  0  0
  -15.8200  -26.9640   -7.6640 N   0  0  2  0  0  0  0  0  0  0  0  0
  -16.6330  -27.3930   -7.1920 H   0  0  0  0  0  0  0  0  0  0  0  0
  -14.6120  -27.7960   -7.4160 C   0  0  0  0  0  0  0  0  0  0  0  0
  -13.6640  -27.3820   -8.5380 C   0  0  0  0  0  0  0  0  0  0  0  0
  -14.5580  -26.8020   -9.6370 C   0  0  0  0  0  0  0  0  0  0  0  0
  -15.9870  -27.0190   -9.1290 C   0  0  2  0  0  0  0  0  0  0  0  0
  -16.5540  -28.2910   -9.6850 C   0  0  0  0  0  0  0  0  0  0  0  0
  -17.2000  -28.0390  -10.8180 C   0  0  1  0  0  0  0  0  0  0  0  0
  -18.1780  -26.0500  -11.8800 O   0  0  0  0  0  0  0  0  0  0  0  0
  -18.2020  -25.0980  -11.7580 H   0  0  0  0  0  0  0  0  0  0  0  0
  -17.9470  -28.9820  -11.4820 O   0  0  0  0  0  0  0  0  0  0  0  0
  -17.4750  -29.4620  -12.7330 C   0  0  0  0  0  0  0  0  0  0  0  0
  1 22  1  1  0  0  0
  1 21  1  0  0  0  0
  1  2  1  0  0  0  0
  2 19  1  1  0  0  0
  2  3  1  0  0  0  0
  3 11  2  0  0  0  0
  4  3  1  0  0  0  0
  4  5  2  0  0  0  0
  5  9  1  0  0  0  0
  6  5  1  0  0  0  0
  6  7  1  0  0  0  0
  7  8  1  0  0  0  0
  9 10  2  0  0  0  0
  9  8  1  0  0  0  0
 11 12  1  0  0  0  0
 11 10  1  0  0  0  0
 13 12  1  0  0  0  0
 14 19  1  6  0  0  0
 14 16  1  0  0  0  0
 14 15  1  0  0  0  0
 14 13  1  0  0  0  0
 17 16  1  0  0  0  0
 18 19  1  0  0  0  0
 18 17  1  0  0  0  0
 19 20  1  6  0  0  0
 21 24  1  1  0  0  0
 21 20  1  0  0  0  0
 22 23  1  0  0  0  0
 25 24  1  0  0  0  0
M  END
>  <minimizedAffinity>
-7.87641668

$$$$

 OpenBabel12271914493D

 25 29  0  0  1  0  0  0  0  0999 V2000
  -17.8610  -26.1910  -11.5800 C   0  0  1  0  0  0  0  0  0  0  0  0
  -16.3790  -25.8850  -11.3200 C   0  0  1  0  0  0  0  0  0  0  0  0
  -15.7730  -26.1470   -9.9650 C   0  0  0  0  0  0  0  0  0  0  0  0
  -16.5430  -26.6440   -8.9280 C   0  0  0  0  0  0  0  0  0  0  0  0
  -15.9880  -26.9040   -7.7010 C   0  0  0  0  0  0  0  0  0  0  0  0
  -16.6130  -27.4110   -6.5900 O   0  0  0  0  0  0  0  0  0  0  0  0
  -15.5980  -27.4110   -5.5770 C   0  0  0  0  0  0  0  0  0  0  0  0
  -14.3340  -27.0360   -6.1430 O   0  0  0  0  0  0  0  0  0  0  0  0
  -14.6530  -26.6830   -7.4410 C   0  0  0  0  0  0  0  0  0  0  0  0
  -13.8470  -26.1910   -8.4240 C   0  0  0  0  0  0  0  0  0  0  0  0
  -14.3810  -25.9190   -9.6990 C   0  0  0  0  0  0  0  0  0  0  0  0
  -13.3180  -25.4270  -10.6290 C   0  0  0  0  0  0  0  0  0  0  0  0
  -13.5960  -25.7010  -12.0930 C   0  0  0  0  0  0  0  0  0  0  0  0
  -14.3060  -26.9970  -12.2790 N   0  0  2  0  0  0  0  0  0  0  0  0
  -14.0920  -27.6300  -11.4910 H   0  0  0  0  0  0  0  0  0  0  0  0
  -13.9230  -27.6560  -13.5560 C   0  0  0  0  0  0  0  0  0  0  0  0
  -14.7370  -26.8970  -14.6000 C   0  0  0  0  0  0  0  0  0  0  0  0
  -15.9090  -26.2760  -13.8360 C   0  0  0  0  0  0  0  0  0  0  0  0
  -15.7630  -26.8090  -12.4060 C   0  0  2  0  0  0  0  0  0  0  0  0
  -16.6100  -28.0320  -12.2140 C   0  0  0  0  0  0  0  0  0  0  0  0
  -17.8090  -27.6830  -11.7570 C   0  0  1  0  0  0  0  0  0  0  0  0
  -18.7570  -25.7150  -10.6310 O   0  0  0  0  0  0  0  0  0  0  0  0
  -18.5060  -24.8190  -10.3980 H   0  0  0  0  0  0  0  0  0  0  0  0
  -18.7510  -28.5960  -11.3480 O   0  0  0  0  0  0  0  0  0  0  0  0
  -18.3900  -29.5370  -10.3470 C   0  0  0  0  0  0  0  0  0  0  0  0
  1  2  1  0  0  0  0
  1 22  1  1  0  0  0
  2 19  1  6  0  0  0
  2  3  1  0  0  0  0
  3 11  2  0  0  0  0
  3  4  1  0  0  0  0
  4  5  2  0  0  0  0
  5  9  1  0  0  0  0
  5  6  1  0  0  0  0
  6  7  1  0  0  0  0
  8  7  1  0  0  0  0
  9  8  1  0  0  0  0
 10  9  2  0  0  0  0
 11 10  1  0  0  0  0
 12 11  1  0  0  0  0
 13 12  1  0  0  0  0
 14 19  1  6  0  0  0
 14 13  1  0  0  0  0
 14 15  1  0  0  0  0
 16 14  1  0  0  0  0
 17 18  1  0  0  0  0
 17 16  1  0  0  0  0
 19 18  1  6  0  0  0
 19 20  1  0  0  0  0
 20 21  1  0  0  0  0
 21  1  1  0  0  0  0
 21 24  1  1  0  0  0
 22 23  1  0  0  0  0
 24 25  1  0  0  0  0
M  END
>  <minimizedAffinity>
-7.82927227

$$$$

 OpenBabel12271914493D

 25 29  0  0  1  0  0  0  0  0999 V2000
  -25.4230  -26.2910   -3.1370 C   0  0  1  0  0  0  0  0  0  0  0  0
  -26.8350  -26.3000   -2.5320 C   0  0  1  0  0  0  0  0  0  0  0  0
  -27.4540  -25.0230   -2.0230 C   0  0  0  0  0  0  0  0  0  0  0  0
  -26.7570  -23.8300   -2.0700 C   0  0  0  0  0  0  0  0  0  0  0  0
  -27.3290  -22.6630   -1.6290 C   0  0  0  0  0  0  0  0  0  0  0  0
  -26.7750  -21.4080   -1.6290 O   0  0  0  0  0  0  0  0  0  0  0  0
  -27.7620  -20.5820   -0.9970 C   0  0  0  0  0  0  0  0  0  0  0  0
  -28.9590  -21.3350   -0.7580 O   0  0  0  0  0  0  0  0  0  0  0  0
  -28.6070  -22.6220   -1.1190 C   0  0  0  0  0  0  0  0  0  0  0  0
  -29.3410  -23.7700   -1.0450 C   0  0  0  0  0  0  0  0  0  0  0  0
  -28.7890  -24.9850   -1.4960 C   0  0  0  0  0  0  0  0  0  0  0  0
  -29.7750  -26.1020   -1.3590 C   0  0  0  0  0  0  0  0  0  0  0  0
  -29.5650  -27.2410   -2.3360 C   0  0  0  0  0  0  0  0  0  0  0  0
  -29.0710  -26.7450   -3.6520 N   0  0  2  0  0  0  0  0  0  0  0  0
  -29.3700  -25.7670   -3.7920 H   0  0  0  0  0  0  0  0  0  0  0  0
  -29.5720  -27.5790   -4.7770 C   0  0  0  0  0  0  0  0  0  0  0  0
  -28.6640  -28.8050   -4.7360 C   0  0  0  0  0  0  0  0  0  0  0  0
  -27.3980  -28.3540   -4.0030 C   0  0  0  0  0  0  0  0  0  0  0  0
  -27.6040  -26.8550   -3.7610 C   0  0  2  0  0  0  0  0  0  0  0  0
  -26.9580  -26.0540   -4.8520 C   0  0  0  0  0  0  0  0  0  0  0  0
  -25.7130  -25.7430   -4.5060 C   0  0  1  0  0  0  0  0  0  0  0  0
  -24.4500  -25.6260   -2.4010 O   0  0  0  0  0  0  0  0  0  0  0  0
  -24.5530  -25.8630   -1.4770 H   0  0  0  0  0  0  0  0  0  0  0  0
  -24.9210  -24.8920   -5.2380 O   0  0  0  0  0  0  0  0  0  0  0  0
  -24.2870  -25.3950   -6.4060 C   0  0  0  0  0  0  0  0  0  0  0  0
  1  2  1  0  0  0  0
  1 22  1  1  0  0  0
  2 19  1  6  0  0  0
  2  3  1  0  0  0  0
  3 11  2  0  0  0  0
  4  3  1  0  0  0  0
  4  5  2  0  0  0  0
  5  6  1  0  0  0  0
  5  9  1  0  0  0  0
  6  7  1  0  0  0  0
  7  8  1  0  0  0  0
  9 10  2  0  0  0  0
  9  8  1  0  0  0  0
 11 12  1  0  0  0  0
 11 10  1  0  0  0  0
 13 12  1  0  0  0  0
 14 19  1  1  0  0  0
 14 13  1  0  0  0  0
 15 14  1  0  0  0  0
 16 17  1  0  0  0  0
 16 14  1  0  0  0  0
 17 18  1  0  0  0  0
 18 19  1  0  0  0  0
 19 20  1  6  0  0  0
 20 21  1  0  0  0  0
 21 24  1  1  0  0  0
 21  1  1  0  0  0  0
 22 23  1  0  0  0  0
 25 24  1  0  0  0  0
M  END
>  <minimizedAffinity>
-7.82512808

$$$$

 OpenBabel12271914493D

 25 29  0  0  1  0  0  0  0  0999 V2000
  -17.6130  -28.3760   -9.5040 C   0  0  1  0  0  0  0  0  0  0  0  0
  -16.3950  -27.5750   -9.0200 C   0  0  1  0  0  0  0  0  0  0  0  0
  -15.4310  -26.9790  -10.0140 C   0  0  0  0  0  0  0  0  0  0  0  0
  -15.6120  -27.1610  -11.3730 C   0  0  0  0  0  0  0  0  0  0  0  0
  -14.7480  -26.6000  -12.2800 C   0  0  0  0  0  0  0  0  0  0  0  0
  -14.8070  -26.6740  -13.6480 O   0  0  0  0  0  0  0  0  0  0  0  0
  -13.6320  -25.9820  -14.0940 C   0  0  0  0  0  0  0  0  0  0  0  0
  -12.9620  -25.3750  -12.9810 O   0  0  0  0  0  0  0  0  0  0  0  0
  -13.6690  -25.8400  -11.8870 C   0  0  0  0  0  0  0  0  0  0  0  0
  -13.4390  -25.6300  -10.5590 C   0  0  0  0  0  0  0  0  0  0  0  0
  -14.3090  -26.1850   -9.6000 C   0  0  0  0  0  0  0  0  0  0  0  0
  -13.8940  -25.7990   -8.2160 C   0  0  0  0  0  0  0  0  0  0  0  0
  -15.0260  -25.7800   -7.2090 C   0  0  0  0  0  0  0  0  0  0  0  0
  -16.3020  -25.3320   -7.8330 N   0  0  2  0  0  0  0  0  0  0  0  0
  -16.1010  -24.7330   -8.6510 H   0  0  0  0  0  0  0  0  0  0  0  0
  -17.1510  -24.5800   -6.8710 C   0  0  0  0  0  0  0  0  0  0  0  0
  -17.7840  -25.6820   -6.0270 C   0  0  0  0  0  0  0  0  0  0  0  0
  -17.7190  -26.9470   -6.8860 C   0  0  0  0  0  0  0  0  0  0  0  0
  -17.1480  -26.4730   -8.2280 C   0  0  2  0  0  0  0  0  0  0  0  0
  -18.2570  -26.1750   -9.1920 C   0  0  0  0  0  0  0  0  0  0  0  0
  -18.5330  -27.2600   -9.9100 C   0  0  1  0  0  0  0  0  0  0  0  0
  -17.3610  -29.3470  -10.4650 O   0  0  0  0  0  0  0  0  0  0  0  0
  -16.5670  -29.8240  -10.2150 H   0  0  0  0  0  0  0  0  0  0  0  0
  -19.4030  -27.2540  -10.9750 O   0  0  0  0  0  0  0  0  0  0  0  0
  -19.1720  -26.3320  -12.0310 C   0  0  0  0  0  0  0  0  0  0  0  0
  1 22  1  6  0  0  0
  1  2  1  0  0  0  0
  2 19  1  6  0  0  0
  3 11  2  0  0  0  0
  3  2  1  0  0  0  0
  4  3  1  0  0  0  0
  5  9  1  0  0  0  0
  5  4  2  0  0  0  0
  6  5  1  0  0  0  0
  7  6  1  0  0  0  0
  7  8  1  0  0  0  0
  8  9  1  0  0  0  0
  9 10  2  0  0  0  0
 10 11  1  0  0  0  0
 11 12  1  0  0  0  0
 12 13  1  0  0  0  0
 14 19  1  6  0  0  0
 14 13  1  0  0  0  0
 14 16  1  0  0  0  0
 15 14  1  0  0  0  0
 16 17  1  0  0  0  0
 18 17  1  0  0  0  0
 19 20  1  6  0  0  0
 19 18  1  0  0  0  0
 21 24  1  6  0  0  0
 21  1  1  0  0  0  0
 21 20  1  0  0  0  0
 22 23  1  0  0  0  0
 25 24  1  0  0  0  0
M  END
>  <minimizedAffinity>
-7.78585672

$$$$

 OpenBabel12271914493D

 25 29  0  0  1  0  0  0  0  0999 V2000
  -20.1300  -27.9360  -10.7130 C   0  0  1  0  0  0  0  0  0  0  0  0
  -20.2170  -27.2820   -9.3260 C   0  0  1  0  0  0  0  0  0  0  0  0
  -19.0130  -26.6000   -8.7280 C   0  0  0  0  0  0  0  0  0  0  0  0
  -17.8070  -26.5710   -9.4030 C   0  0  0  0  0  0  0  0  0  0  0  0
  -16.7170  -25.9300   -8.8690 C   0  0  0  0  0  0  0  0  0  0  0  0
  -15.4690  -25.8000   -9.4240 O   0  0  0  0  0  0  0  0  0  0  0  0
  -14.7030  -25.1150   -8.4230 C   0  0  0  0  0  0  0  0  0  0  0  0
  -15.5520  -24.7150   -7.3380 O   0  0  0  0  0  0  0  0  0  0  0  0
  -16.7670  -25.2960   -7.6480 C   0  0  0  0  0  0  0  0  0  0  0  0
  -17.9300  -25.2960   -6.9360 C   0  0  0  0  0  0  0  0  0  0  0  0
  -19.0720  -25.9370   -7.4560 C   0  0  0  0  0  0  0  0  0  0  0  0
  -20.2390  -25.7810   -6.5320 C   0  0  0  0  0  0  0  0  0  0  0  0
  -21.5880  -25.8480   -7.2190 C   0  0  0  0  0  0  0  0  0  0  0  0
  -21.5380  -25.2450   -8.5790 N   0  0  2  0  0  0  0  0  0  0  0  0
  -20.7790  -24.5450   -8.6240 H   0  0  0  0  0  0  0  0  0  0  0  0
  -22.8260  -24.5970   -8.9420 C   0  0  0  0  0  0  0  0  0  0  0  0
  -23.7110  -25.7750   -9.3400 C   0  0  0  0  0  0  0  0  0  0  0  0
  -22.7470  -26.9020   -9.7210 C   0  0  0  0  0  0  0  0  0  0  0  0
  -21.3550  -26.2690   -9.6250 C   0  0  2  0  0  0  0  0  0  0  0  0
  -20.9110  -25.7730  -10.9690 C   0  0  0  0  0  0  0  0  0  0  0  0
  -20.2260  -26.7240  -11.5960 C   0  0  1  0  0  0  0  0  0  0  0  0
  -19.0370  -28.7680  -10.9260 O   0  0  0  0  0  0  0  0  0  0  0  0
  -18.9190  -29.3190  -10.1490 H   0  0  0  0  0  0  0  0  0  0  0  0
  -19.5680  -26.5150  -12.7840 O   0  0  0  0  0  0  0  0  0  0  0  0
  -18.4830  -25.5980  -12.8050 C   0  0  0  0  0  0  0  0  0  0  0  0
  1 22  1  1  0  0  0
  1  2  1  0  0  0  0
  2 19  1  6  0  0  0
  2  3  1  0  0  0  0
  3 11  2  0  0  0  0
  4  5  2  0  0  0  0
  4  3  1  0  0  0  0
  5  9  1  0  0  0  0
  6  5  1  0  0  0  0
  6  7  1  0  0  0  0
  7  8  1  0  0  0  0
  9  8  1  0  0  0  0
  9 10  2  0  0  0  0
 11 10  1  0  0  0  0
 11 12  1  0  0  0  0
 13 12  1  0  0  0  0
 14 19  1  6  0  0  0
 14 13  1  0  0  0  0
 15 14  1  0  0  0  0
 16 14  1  0  0  0  0
 17 16  1  0  0  0  0
 18 19  1  0  0  0  0
 18 17  1  0  0  0  0
 19 20  1  6  0  0  0
 21 24  1  1  0  0  0
 21 20  1  0  0  0  0
 21  1  1  0  0  0  0
 22 23  1  0  0  0  0
 25 24  1  0  0  0  0
M  END
>  <minimizedAffinity>
-7.39584255

$$$$

 OpenBabel12271914493D

 25 29  0  0  1  0  0  0  0  0999 V2000
  -16.5650  -27.5210   -8.1850 C   0  0  1  0  0  0  0  0  0  0  0  0
  -16.7370  -27.2220   -9.6810 C   0  0  1  0  0  0  0  0  0  0  0  0
  -18.0470  -26.6940  -10.2070 C   0  0  0  0  0  0  0  0  0  0  0  0
  -19.1210  -26.4910   -9.3590 C   0  0  0  0  0  0  0  0  0  0  0  0
  -20.3070  -25.9880   -9.8330 C   0  0  0  0  0  0  0  0  0  0  0  0
  -21.4450  -25.7160   -9.1180 O   0  0  0  0  0  0  0  0  0  0  0  0
  -22.3930  -25.2860  -10.1050 C   0  0  0  0  0  0  0  0  0  0  0  0
  -21.7560  -25.1680  -11.3850 O   0  0  0  0  0  0  0  0  0  0  0  0
  -20.4870  -25.6680  -11.1610 C   0  0  0  0  0  0  0  0  0  0  0  0
  -19.4630  -25.8510  -12.0430 C   0  0  0  0  0  0  0  0  0  0  0  0
  -18.2290  -26.3580  -11.5910 C   0  0  0  0  0  0  0  0  0  0  0  0
  -17.2430  -26.4410  -12.7130 C   0  0  0  0  0  0  0  0  0  0  0  0
  -15.7950  -26.3530  -12.2760 C   0  0  0  0  0  0  0  0  0  0  0  0
  -15.6310  -25.4380  -11.1120 N   0  0  2  0  0  0  0  0  0  0  0  0
  -16.3940  -24.7410  -11.1050 H   0  0  0  0  0  0  0  0  0  0  0  0
  -14.3220  -24.7340  -11.1450 C   0  0  0  0  0  0  0  0  0  0  0  0
  -13.3440  -25.7890  -10.6350 C   0  0  0  0  0  0  0  0  0  0  0  0
  -14.1910  -26.7820   -9.8350 C   0  0  0  0  0  0  0  0  0  0  0  0
  -15.5990  -26.1780   -9.8360 C   0  0  2  0  0  0  0  0  0  0  0  0
  -15.8230  -25.3680   -8.5940 C   0  0  0  0  0  0  0  0  0  0  0  0
  -16.3590  -26.1320   -7.6480 C   0  0  1  0  0  0  0  0  0  0  0  0
  -17.5770  -28.2660   -7.5920 O   0  0  0  0  0  0  0  0  0  0  0  0
  -17.8080  -28.9870   -8.1810 H   0  0  0  0  0  0  0  0  0  0  0  0
  -16.8110  -25.6360   -6.4490 O   0  0  0  0  0  0  0  0  0  0  0  0
  -17.9840  -24.8340   -6.4470 C   0  0  0  0  0  0  0  0  0  0  0  0
  1 21  1  0  0  0  0
  1 22  1  1  0  0  0
  2 19  1  1  0  0  0
  2  1  1  0  0  0  0
  3  2  1  0  0  0  0
  3  4  1  0  0  0  0
  5  4  2  0  0  0  0
  5  6  1  0  0  0  0
  7  6  1  0  0  0  0
  8  9  1  0  0  0  0
  8  7  1  0  0  0  0
  9  5  1  0  0  0  0
 10 11  1  0  0  0  0
 10  9  2  0  0  0  0
 11  3  2  0  0  0  0
 12 13  1  0  0  0  0
 12 11  1  0  0  0  0
 13 14  1  0  0  0  0
 14 15  1  0  0  0  0
 14 19  1  1  0  0  0
 16 14  1  0  0  0  0
 16 17  1  0  0  0  0
 17 18  1  0  0  0  0
 19 18  1  1  0  0  0
 19 20  1  0  0  0  0
 20 21  1  0  0  0  0
 21 24  1  6  0  0  0
 23 22  1  0  0  0  0
 24 25  1  0  0  0  0
M  END
>  <minimizedAffinity>
-7.34029198

$$$$

 OpenBabel12271914493D

 25 29  0  0  1  0  0  0  0  0999 V2000
  -18.8620  -29.6980  -10.3140 C   0  0  1  0  0  0  0  0  0  0  0  0
  -19.0690  -28.5300   -9.3380 C   0  0  1  0  0  0  0  0  0  0  0  0
  -17.8880  -27.7430   -8.8300 C   0  0  0  0  0  0  0  0  0  0  0  0
  -16.6000  -28.0700   -9.2140 C   0  0  0  0  0  0  0  0  0  0  0  0
  -15.5270  -27.3400   -8.7700 C   0  0  0  0  0  0  0  0  0  0  0  0
  -14.2030  -27.5290   -9.0760 O   0  0  0  0  0  0  0  0  0  0  0  0
  -13.5120  -26.5450   -8.2930 C   0  0  0  0  0  0  0  0  0  0  0  0
  -14.4520  -25.6830   -7.6380 O   0  0  0  0  0  0  0  0  0  0  0  0
  -15.6750  -26.2600   -7.9280 C   0  0  0  0  0  0  0  0  0  0  0  0
  -16.9220  -25.8930   -7.5150 C   0  0  0  0  0  0  0  0  0  0  0  0
  -18.0480  -26.6160   -7.9560 C   0  0  0  0  0  0  0  0  0  0  0  0
  -19.3090  -26.0210   -7.4140 C   0  0  0  0  0  0  0  0  0  0  0  0
  -20.5340  -26.2750   -8.2690 C   0  0  0  0  0  0  0  0  0  0  0  0
  -20.1940  -26.2850   -9.7190 N   0  0  2  0  0  0  0  0  0  0  0  0
  -19.3480  -25.7150   -9.8840 H   0  0  0  0  0  0  0  0  0  0  0  0
  -21.3100  -25.7590  -10.5490 C   0  0  0  0  0  0  0  0  0  0  0  0
  -22.2770  -26.9370  -10.6220 C   0  0  0  0  0  0  0  0  0  0  0  0
  -21.4320  -28.1810  -10.3360 C   0  0  0  0  0  0  0  0  0  0  0  0
  -19.9970  -27.6560  -10.2250 C   0  0  2  0  0  0  0  0  0  0  0  0
  -19.2890  -27.7830  -11.5410 C   0  0  0  0  0  0  0  0  0  0  0  0
  -18.6540  -28.9490  -11.6010 C   0  0  1  0  0  0  0  0  0  0  0  0
  -17.8750  -30.6130   -9.9680 O   0  0  0  0  0  0  0  0  0  0  0  0
  -17.9540  -30.8050   -9.0320 H   0  0  0  0  0  0  0  0  0  0  0  0
  -17.7990  -29.2860  -12.6230 O   0  0  0  0  0  0  0  0  0  0  0  0
  -16.7510  -28.3870  -12.9530 C   0  0  0  0  0  0  0  0  0  0  0  0
  1 22  1  1  0  0  0
  1  2  1  0  0  0  0
  2 19  1  6  0  0  0
  2  3  1  0  0  0  0
  3 11  2  0  0  0  0
  4  3  1  0  0  0  0
  4  5  2  0  0  0  0
  5  9  1  0  0  0  0
  6  5  1  0  0  0  0
  6  7  1  0  0  0  0
  7  8  1  0  0  0  0
  9  8  1  0  0  0  0
  9 10  2  0  0  0  0
 11 10  1  0  0  0  0
 11 12  1  0  0  0  0
 13 12  1  0  0  0  0
 14 19  1  6  0  0  0
 14 13  1  0  0  0  0
 15 14  1  0  0  0  0
 16 14  1  0  0  0  0
 17 16  1  0  0  0  0
 17 18  1  0  0  0  0
 18 19  1  0  0  0  0
 19 20  1  6  0  0  0
 21 24  1  1  0  0  0
 21 20  1  0  0  0  0
 21  1  1  0  0  0  0
 22 23  1  0  0  0  0
 25 24  1  0  0  0  0
M  END
>  <minimizedAffinity>
-7.33803034

$$$$

 OpenBabel12271914493D

 25 29  0  0  1  0  0  0  0  0999 V2000
  -15.8220  -25.4210  -11.1720 C   0  0  1  0  0  0  0  0  0  0  0  0
  -16.6410  -25.5570   -9.8800 C   0  0  1  0  0  0  0  0  0  0  0  0
  -17.9810  -26.2470   -9.8970 C   0  0  0  0  0  0  0  0  0  0  0  0
  -18.5060  -26.7470  -11.0750 C   0  0  0  0  0  0  0  0  0  0  0  0
  -19.7160  -27.3950  -11.0870 C   0  0  0  0  0  0  0  0  0  0  0  0
  -20.3530  -27.9580  -12.1640 O   0  0  0  0  0  0  0  0  0  0  0  0
  -21.6000  -28.4290  -11.6350 C   0  0  0  0  0  0  0  0  0  0  0  0
  -21.6270  -28.2680  -10.2100 O   0  0  0  0  0  0  0  0  0  0  0  0
  -20.4600  -27.5760   -9.9420 C   0  0  0  0  0  0  0  0  0  0  0  0
  -19.9930  -27.1000   -8.7520 C   0  0  0  0  0  0  0  0  0  0  0  0
  -18.7520  -26.4360   -8.7000 C   0  0  0  0  0  0  0  0  0  0  0  0
  -18.4190  -26.0350   -7.2980 C   0  0  0  0  0  0  0  0  0  0  0  0
  -16.9340  -25.9100   -7.0230 C   0  0  0  0  0  0  0  0  0  0  0  0
  -16.1510  -26.9170   -7.7920 N   0  0  2  0  0  0  0  0  0  0  0  0
  -16.7440  -27.7370   -7.9990 H   0  0  0  0  0  0  0  0  0  0  0  0
  -14.9430  -27.3600   -7.0460 C   0  0  0  0  0  0  0  0  0  0  0  0
  -13.9570  -26.2150   -7.2650 C   0  0  0  0  0  0  0  0  0  0  0  0
  -14.4310  -25.5020   -8.5340 C   0  0  0  0  0  0  0  0  0  0  0  0
  -15.6040  -26.3490   -9.0380 C   0  0  2  0  0  0  0  0  0  0  0  0
  -15.1350  -27.3340  -10.0670 C   0  0  0  0  0  0  0  0  0  0  0  0
  -15.2450  -26.8040  -11.2810 C   0  0  1  0  0  0  0  0  0  0  0  0
  -16.5120  -24.9530  -12.2840 O   0  0  0  0  0  0  0  0  0  0  0  0
  -17.0660  -24.2190  -12.0110 H   0  0  0  0  0  0  0  0  0  0  0  0
  -15.0290  -27.5200  -12.4340 O   0  0  0  0  0  0  0  0  0  0  0  0
  -13.9210  -27.1690  -13.2500 C   0  0  0  0  0  0  0  0  0  0  0  0
  1 22  1  6  0  0  0
  1  2  1  0  0  0  0
  2 19  1  1  0  0  0
  3  2  1  0  0  0  0
  3 11  2  0  0  0  0
  4  3  1  0  0  0  0
  5  4  2  0  0  0  0
  5  9  1  0  0  0  0
  6  7  1  0  0  0  0
  6  5  1  0  0  0  0
  7  8  1  0  0  0  0
  8  9  1  0  0  0  0
  9 10  2  0  0  0  0
 10 11  1  0  0  0  0
 11 12  1  0  0  0  0
 12 13  1  0  0  0  0
 14 19  1  6  0  0  0
 14 16  1  0  0  0  0
 14 13  1  0  0  0  0
 15 14  1  0  0  0  0
 17 16  1  0  0  0  0
 18 17  1  0  0  0  0
 19 20  1  6  0  0  0
 19 18  1  0  0  0  0
 21 24  1  6  0  0  0
 21  1  1  0  0  0  0
 21 20  1  0  0  0  0
 22 23  1  0  0  0  0
 25 24  1  0  0  0  0
M  END
>  <minimizedAffinity>
-7.27662849

$$$$
