
 OpenBabel12271914513D

 27 29  0  0  1  0  0  0  0  0999 V2000
  -16.4640  -26.0840   -8.2930 C   0  0  1  0  0  0  0  0  0  0  0  0
  -15.8140  -24.7950   -8.3520 N   0  0  0  0  0  0  0  0  0  0  0  0
  -15.0410  -24.5760   -7.6580 H   0  0  0  0  0  0  0  0  0  0  0  0
  -15.0760  -24.7270   -9.7390 O   0  0  0  0  0  0  0  0  0  0  0  0
  -15.5470  -25.8790  -10.4490 C   0  0  2  0  0  0  0  0  0  0  0  0
  -14.3150  -26.4190  -11.1650 C   0  0  1  0  0  0  0  0  0  0  0  0
  -14.3540  -26.1510  -12.6210 C   0  0  2  0  0  0  0  0  0  0  0  0
  -15.6490  -26.6500  -13.1210 C   0  0  1  0  0  0  0  0  0  0  0  0
  -16.7000  -25.6670  -12.6480 C   0  0  2  0  0  0  0  0  0  0  0  0
  -16.6850  -25.3810  -11.2140 O   0  0  0  0  0  0  0  0  0  0  0  0
  -16.0660  -26.8950   -9.4830 C   0  0  0  0  0  0  0  0  0  0  0  0
  -16.1660  -26.6780   -6.9670 C   0  0  0  0  0  0  0  0  0  0  0  0
  -14.9250  -27.3040   -6.7540 C   0  0  0  0  0  0  0  0  0  0  0  0
  -14.6140  -27.8730   -5.5450 C   0  0  0  0  0  0  0  0  0  0  0  0
  -15.5230  -27.8230   -4.4930 C   0  0  0  0  0  0  0  0  0  0  0  0
  -15.2080  -28.4120   -3.1500 C   0  0  0  0  0  0  0  0  0  0  0  0
  -16.7470  -27.1900   -4.6860 C   0  0  0  0  0  0  0  0  0  0  0  0
  -17.0660  -26.6200   -5.9150 C   0  0  0  0  0  0  0  0  0  0  0  0
  -13.2830  -26.9770  -13.1800 O   0  0  0  0  0  0  0  0  0  0  0  0
  -12.5320  -26.3760  -13.3380 H   0  0  0  0  0  0  0  0  0  0  0  0
  -13.1230  -25.8270  -10.5680 O   0  0  0  0  0  0  0  0  0  0  0  0
  -12.4160  -26.4480  -10.7530 H   0  0  0  0  0  0  0  0  0  0  0  0
  -15.7520  -26.5880  -14.5570 O   0  0  0  0  0  0  0  0  0  0  0  0
  -15.0080  -27.0910  -14.9040 H   0  0  0  0  0  0  0  0  0  0  0  0
  -18.0890  -26.1380  -13.0160 C   0  0  0  0  0  0  0  0  0  0  0  0
  -18.4020  -25.9480  -14.4280 O   0  0  0  0  0  0  0  0  0  0  0  0
  -17.9310  -25.1680  -14.7700 H   0  0  0  0  0  0  0  0  0  0  0  0
  1 12  1  1  0  0  0
  2  1  1  0  0  0  0
  2  3  1  0  0  0  0
  4  2  1  0  0  0  0
  5  4  1  0  0  0  0
  5 11  1  1  0  0  0
  6 21  1  0  0  0  0
  6  5  1  1  0  0  0
  7 19  1  6  0  0  0
  7  6  1  0  0  0  0
  8 23  1  6  0  0  0
  8  9  1  0  0  0  0
  8  7  1  0  0  0  0
  9 25  1  1  0  0  0
  9 10  1  0  0  0  0
 10  5  1  0  0  0  0
 11  1  1  0  0  0  0
 12 13  2  0  0  0  0
 12 18  1  0  0  0  0
 13 14  1  0  0  0  0
 14 15  2  0  0  0  0
 15 16  1  0  0  0  0
 17 15  1  0  0  0  0
 18 17  2  0  0  0  0
 20 19  1  0  0  0  0
 22 21  1  0  0  0  0
 24 23  1  0  0  0  0
 26 25  1  0  0  0  0
 27 26  1  0  0  0  0
M  END
>  <minimizedAffinity>
-7.92958355

$$$$

 OpenBabel12271914513D

 27 29  0  0  1  0  0  0  0  0999 V2000
  -25.2970  -24.8680   -3.8670 C   0  0  1  0  0  0  0  0  0  0  0  0
  -24.7720  -26.1250   -3.3880 N   0  0  0  0  0  0  0  0  0  0  0  0
  -25.3610  -26.7120   -2.7280 H   0  0  0  0  0  0  0  0  0  0  0  0
  -24.6130  -27.0550   -4.6460 O   0  0  0  0  0  0  0  0  0  0  0  0
  -24.8440  -26.1860   -5.7610 C   0  0  2  0  0  0  0  0  0  0  0  0
  -25.6720  -27.0200   -6.7320 C   0  0  1  0  0  0  0  0  0  0  0  0
  -24.8800  -27.4580   -7.9050 C   0  0  2  0  0  0  0  0  0  0  0  0
  -24.2480  -26.2550   -8.4790 C   0  0  1  0  0  0  0  0  0  0  0  0
  -23.1250  -25.8700   -7.5370 C   0  0  2  0  0  0  0  0  0  0  0  0
  -23.5100  -25.7290   -6.1340 O   0  0  0  0  0  0  0  0  0  0  0  0
  -25.6220  -24.9880   -5.3200 C   0  0  0  0  0  0  0  0  0  0  0  0
  -26.4180  -24.4790   -2.9760 C   0  0  0  0  0  0  0  0  0  0  0  0
  -27.4980  -25.3630   -2.7990 C   0  0  0  0  0  0  0  0  0  0  0  0
  -28.5570  -25.0370   -1.9900 C   0  0  0  0  0  0  0  0  0  0  0  0
  -28.5720  -23.8240   -1.3110 C   0  0  0  0  0  0  0  0  0  0  0  0
  -29.7010  -23.4450   -0.3990 C   0  0  0  0  0  0  0  0  0  0  0  0
  -27.5010  -22.9490   -1.4630 C   0  0  0  0  0  0  0  0  0  0  0  0
  -26.4290  -23.2760   -2.2900 C   0  0  0  0  0  0  0  0  0  0  0  0
  -25.8720  -27.9670   -8.8530 O   0  0  0  0  0  0  0  0  0  0  0  0
  -25.8440  -28.9390   -8.7790 H   0  0  0  0  0  0  0  0  0  0  0  0
  -26.2170  -28.1710   -6.0220 O   0  0  0  0  0  0  0  0  0  0  0  0
  -26.9980  -28.4240   -6.5180 H   0  0  0  0  0  0  0  0  0  0  0  0
  -23.5700  -26.5230   -9.7210 O   0  0  0  0  0  0  0  0  0  0  0  0
  -24.2260  -26.9080  -10.3110 H   0  0  0  0  0  0  0  0  0  0  0  0
  -22.4700  -24.5790   -7.9750 C   0  0  0  0  0  0  0  0  0  0  0  0
  -23.2860  -23.8090   -8.9070 O   0  0  0  0  0  0  0  0  0  0  0  0
  -23.8290  -24.4120   -9.4470 H   0  0  0  0  0  0  0  0  0  0  0  0
  1  2  1  0  0  0  0
  1 12  1  1  0  0  0
  2  3  1  0  0  0  0
  4  2  1  0  0  0  0
  5 11  1  1  0  0  0
  5  4  1  0  0  0  0
  6 21  1  0  0  0  0
  6  5  1  1  0  0  0
  7 19  1  6  0  0  0
  7  6  1  0  0  0  0
  8 23  1  6  0  0  0
  8  7  1  0  0  0  0
  8  9  1  0  0  0  0
  9 25  1  6  0  0  0
  9 10  1  0  0  0  0
 10  5  1  0  0  0  0
 11  1  1  0  0  0  0
 12 13  2  0  0  0  0
 12 18  1  0  0  0  0
 13 14  1  0  0  0  0
 14 15  2  0  0  0  0
 15 16  1  0  0  0  0
 17 15  1  0  0  0  0
 18 17  2  0  0  0  0
 19 20  1  0  0  0  0
 22 21  1  0  0  0  0
 24 23  1  0  0  0  0
 26 25  1  0  0  0  0
 27 26  1  0  0  0  0
M  END
>  <minimizedAffinity>
-7.55895424

$$$$

 OpenBabel12271914513D

 27 29  0  0  1  0  0  0  0  0999 V2000
  -17.4710  -26.1650   -8.3720 C   0  0  1  0  0  0  0  0  0  0  0  0
  -16.5810  -25.3660   -9.1840 N   0  0  0  0  0  0  0  0  0  0  0  0
  -15.5330  -25.4870   -9.0710 H   0  0  0  0  0  0  0  0  0  0  0  0
  -16.8300  -25.7940  -10.6770 O   0  0  0  0  0  0  0  0  0  0  0  0
  -17.9900  -26.6320  -10.6180 C   0  0  2  0  0  0  0  0  0  0  0  0
  -17.6940  -27.7660  -11.5920 C   0  0  1  0  0  0  0  0  0  0  0  0
  -18.4830  -27.6490  -12.8400 C   0  0  2  0  0  0  0  0  0  0  0  0
  -19.8980  -27.5000  -12.4490 C   0  0  1  0  0  0  0  0  0  0  0  0
  -20.0490  -26.0910  -11.9130 C   0  0  2  0  0  0  0  0  0  0  0  0
  -19.0980  -25.7170  -10.8670 O   0  0  0  0  0  0  0  0  0  0  0  0
  -18.1570  -27.1730   -9.2350 C   0  0  0  0  0  0  0  0  0  0  0  0
  -16.6820  -26.7030   -7.2370 C   0  0  0  0  0  0  0  0  0  0  0  0
  -17.2500  -26.7260   -5.9510 C   0  0  0  0  0  0  0  0  0  0  0  0
  -16.5490  -27.2070   -4.8740 C   0  0  0  0  0  0  0  0  0  0  0  0
  -15.2620  -27.7040   -5.0410 C   0  0  0  0  0  0  0  0  0  0  0  0
  -14.4760  -28.2620   -3.8910 C   0  0  0  0  0  0  0  0  0  0  0  0
  -14.6960  -27.7050   -6.3120 C   0  0  0  0  0  0  0  0  0  0  0  0
  -15.4020  -27.2080   -7.4040 C   0  0  0  0  0  0  0  0  0  0  0  0
  -18.3130  -28.9400  -13.5090 O   0  0  0  0  0  0  0  0  0  0  0  0
  -17.6460  -28.7970  -14.2060 H   0  0  0  0  0  0  0  0  0  0  0  0
  -16.2660  -27.7760  -11.8870 O   0  0  0  0  0  0  0  0  0  0  0  0
  -16.0720  -28.6770  -12.1540 H   0  0  0  0  0  0  0  0  0  0  0  0
  -20.7920  -27.5290  -13.5780 O   0  0  0  0  0  0  0  0  0  0  0  0
  -20.6250  -28.3600  -14.0350 H   0  0  0  0  0  0  0  0  0  0  0  0
  -21.4450  -25.8590  -11.3820 C   0  0  0  0  0  0  0  0  0  0  0  0
  -22.4370  -25.6800  -12.4360 O   0  0  0  0  0  0  0  0  0  0  0  0
  -22.0220  -25.2660  -13.2140 H   0  0  0  0  0  0  0  0  0  0  0  0
  1 12  1  1  0  0  0
  2  3  1  0  0  0  0
  2  1  1  0  0  0  0
  4  5  1  0  0  0  0
  4  2  1  0  0  0  0
  5 11  1  1  0  0  0
  6  5  1  1  0  0  0
  7 19  1  6  0  0  0
  7  8  1  0  0  0  0
  7  6  1  0  0  0  0
  8 23  1  6  0  0  0
  8  9  1  0  0  0  0
  9 25  1  1  0  0  0
  9 10  1  0  0  0  0
 10  5  1  0  0  0  0
 11  1  1  0  0  0  0
 12 13  1  0  0  0  0
 13 14  2  0  0  0  0
 15 14  1  0  0  0  0
 15 16  1  0  0  0  0
 17 15  2  0  0  0  0
 18 12  2  0  0  0  0
 18 17  1  0  0  0  0
 20 19  1  0  0  0  0
 21  6  1  0  0  0  0
 22 21  1  0  0  0  0
 24 23  1  0  0  0  0
 26 25  1  0  0  0  0
 27 26  1  0  0  0  0
M  END
>  <minimizedAffinity>
-7.49909401

$$$$

 OpenBabel12271914513D

 27 29  0  0  1  0  0  0  0  0999 V2000
  -24.9390  -24.1400   -3.2870 C   0  0  1  0  0  0  0  0  0  0  0  0
  -24.8750  -25.4420   -2.6640 N   0  0  0  0  0  0  0  0  0  0  0  0
  -25.4730  -25.6340   -1.8090 H   0  0  0  0  0  0  0  0  0  0  0  0
  -25.4200  -26.4720   -3.7200 O   0  0  0  0  0  0  0  0  0  0  0  0
  -25.5380  -25.7130   -4.9290 C   0  0  2  0  0  0  0  0  0  0  0  0
  -26.8430  -26.1910   -5.5560 C   0  0  1  0  0  0  0  0  0  0  0  0
  -26.6100  -27.0550   -6.7360 C   0  0  2  0  0  0  0  0  0  0  0  0
  -25.7010  -26.3240   -7.6390 C   0  0  1  0  0  0  0  0  0  0  0  0
  -24.3270  -26.3780   -7.0020 C   0  0  2  0  0  0  0  0  0  0  0  0
  -24.2680  -25.9360   -5.6100 O   0  0  0  0  0  0  0  0  0  0  0  0
  -25.6260  -24.2560   -4.6080 C   0  0  0  0  0  0  0  0  0  0  0  0
  -25.5500  -23.2040   -2.3110 C   0  0  0  0  0  0  0  0  0  0  0  0
  -26.9140  -23.3330   -1.9920 C   0  0  0  0  0  0  0  0  0  0  0  0
  -27.5180  -22.4820   -1.1020 C   0  0  0  0  0  0  0  0  0  0  0  0
  -26.7810  -21.4810   -0.4790 C   0  0  0  0  0  0  0  0  0  0  0  0
  -27.4020  -20.5490    0.5190 C   0  0  0  0  0  0  0  0  0  0  0  0
  -25.4270  -21.3550   -0.7720 C   0  0  0  0  0  0  0  0  0  0  0  0
  -24.8150  -22.2120   -1.6820 C   0  0  0  0  0  0  0  0  0  0  0  0
  -27.9200  -27.1690   -7.3780 O   0  0  0  0  0  0  0  0  0  0  0  0
  -28.2750  -28.0380   -7.1170 H   0  0  0  0  0  0  0  0  0  0  0  0
  -27.6210  -26.9000   -4.5470 O   0  0  0  0  0  0  0  0  0  0  0  0
  -28.5320  -26.8320   -4.8400 H   0  0  0  0  0  0  0  0  0  0  0  0
  -25.5150  -26.9930   -8.9010 O   0  0  0  0  0  0  0  0  0  0  0  0
  -26.3920  -27.1070   -9.2800 H   0  0  0  0  0  0  0  0  0  0  0  0
  -23.3290  -25.5650   -7.7950 C   0  0  0  0  0  0  0  0  0  0  0  0
  -23.9340  -24.4330   -8.4880 O   0  0  0  0  0  0  0  0  0  0  0  0
  -24.8520  -24.6470   -8.7320 H   0  0  0  0  0  0  0  0  0  0  0  0
  1  2  1  0  0  0  0
  1 12  1  1  0  0  0
  2  3  1  0  0  0  0
  4  2  1  0  0  0  0
  5 11  1  1  0  0  0
  5  4  1  0  0  0  0
  6  5  1  1  0  0  0
  6 21  1  0  0  0  0
  7 19  1  6  0  0  0
  7  6  1  0  0  0  0
  8 23  1  6  0  0  0
  8  9  1  0  0  0  0
  8  7  1  0  0  0  0
  9 25  1  6  0  0  0
  9 10  1  0  0  0  0
 10  5  1  0  0  0  0
 11  1  1  0  0  0  0
 12 13  2  0  0  0  0
 12 18  1  0  0  0  0
 13 14  1  0  0  0  0
 14 15  2  0  0  0  0
 15 16  1  0  0  0  0
 17 15  1  0  0  0  0
 18 17  2  0  0  0  0
 19 20  1  0  0  0  0
 22 21  1  0  0  0  0
 24 23  1  0  0  0  0
 26 25  1  0  0  0  0
 27 26  1  0  0  0  0
M  END
>  <minimizedAffinity>
-7.46604586

$$$$

 OpenBabel12271914513D

 27 29  0  0  1  0  0  0  0  0999 V2000
  -18.1540  -25.9600   -8.0320 C   0  0  1  0  0  0  0  0  0  0  0  0
  -17.5690  -26.1000   -9.3450 N   0  0  0  0  0  0  0  0  0  0  0  0
  -16.7740  -26.7890   -9.4860 H   0  0  0  0  0  0  0  0  0  0  0  0
  -18.6990  -26.6630  -10.2830 O   0  0  0  0  0  0  0  0  0  0  0  0
  -19.8890  -26.5870   -9.4900 C   0  0  2  0  0  0  0  0  0  0  0  0
  -20.6400  -27.8760   -9.8000 C   0  0  1  0  0  0  0  0  0  0  0  0
  -21.8230  -27.6400  -10.6600 C   0  0  2  0  0  0  0  0  0  0  0  0
  -22.6220  -26.5770  -10.0190 C   0  0  1  0  0  0  0  0  0  0  0  0
  -21.8720  -25.2800  -10.2460 C   0  0  2  0  0  0  0  0  0  0  0  0
  -20.4660  -25.2950   -9.8430 O   0  0  0  0  0  0  0  0  0  0  0  0
  -19.5320  -26.5370   -8.0390 C   0  0  0  0  0  0  0  0  0  0  0  0
  -17.2050  -26.5460   -7.0530 C   0  0  0  0  0  0  0  0  0  0  0  0
  -17.5590  -26.5960   -5.6930 C   0  0  0  0  0  0  0  0  0  0  0  0
  -16.7060  -27.1210   -4.7560 C   0  0  0  0  0  0  0  0  0  0  0  0
  -15.4720  -27.6350   -5.1410 C   0  0  0  0  0  0  0  0  0  0  0  0
  -14.5250  -28.2400   -4.1480 C   0  0  0  0  0  0  0  0  0  0  0  0
  -15.1180  -27.6080   -6.4860 C   0  0  0  0  0  0  0  0  0  0  0  0
  -15.9800  -27.0670   -7.4370 C   0  0  0  0  0  0  0  0  0  0  0  0
  -22.5770  -28.8930  -10.6070 O   0  0  0  0  0  0  0  0  0  0  0  0
  -22.3750  -29.3660  -11.4350 H   0  0  0  0  0  0  0  0  0  0  0  0
  -19.7240  -28.8160  -10.4360 O   0  0  0  0  0  0  0  0  0  0  0  0
  -20.0910  -29.6840  -10.2560 H   0  0  0  0  0  0  0  0  0  0  0  0
  -23.8830  -26.3570  -10.6780 O   0  0  0  0  0  0  0  0  0  0  0  0
  -24.3390  -27.2050  -10.6820 H   0  0  0  0  0  0  0  0  0  0  0  0
  -22.5500  -24.1310   -9.5370 C   0  0  0  0  0  0  0  0  0  0  0  0
  -23.2740  -24.5420   -8.3400 O   0  0  0  0  0  0  0  0  0  0  0  0
  -23.6080  -25.4510   -8.4510 H   0  0  0  0  0  0  0  0  0  0  0  0
  1 12  1  1  0  0  0
  2  1  1  0  0  0  0
  3  2  1  0  0  0  0
  4  5  1  0  0  0  0
  4  2  1  0  0  0  0
  5 11  1  1  0  0  0
  6  5  1  6  0  0  0
  7 19  1  1  0  0  0
  7  8  1  0  0  0  0
  7  6  1  0  0  0  0
  8 23  1  6  0  0  0
  9  8  1  0  0  0  0
  9 10  1  0  0  0  0
  9 25  1  1  0  0  0
 10  5  1  0  0  0  0
 11  1  1  0  0  0  0
 12 13  1  0  0  0  0
 13 14  2  0  0  0  0
 15 14  1  0  0  0  0
 15 16  1  0  0  0  0
 17 15  2  0  0  0  0
 18 12  2  0  0  0  0
 18 17  1  0  0  0  0
 20 19  1  0  0  0  0
 21 22  1  0  0  0  0
 21  6  1  0  0  0  0
 24 23  1  0  0  0  0
 25 26  1  0  0  0  0
 27 26  1  0  0  0  0
M  END
>  <minimizedAffinity>
-7.39056253

$$$$

 OpenBabel12271914513D

 27 29  0  0  1  0  0  0  0  0999 V2000
  -16.2110  -26.1700   -9.9300 C   0  0  1  0  0  0  0  0  0  0  0  0
  -15.5730  -24.8880  -10.1270 N   0  0  0  0  0  0  0  0  0  0  0  0
  -14.8050  -24.5860   -9.4590 H   0  0  0  0  0  0  0  0  0  0  0  0
  -14.8320  -24.9640  -11.5120 O   0  0  0  0  0  0  0  0  0  0  0  0
  -15.2880  -26.1910  -12.0930 C   0  0  2  0  0  0  0  0  0  0  0  0
  -14.0480  -26.7930  -12.7430 C   0  0  1  0  0  0  0  0  0  0  0  0
  -14.0860  -26.6860  -14.2200 C   0  0  2  0  0  0  0  0  0  0  0  0
  -15.3740  -27.2500  -14.6650 C   0  0  1  0  0  0  0  0  0  0  0  0
  -16.4360  -26.2320  -14.3040 C   0  0  2  0  0  0  0  0  0  0  0  0
  -16.4280  -25.7910  -12.9100 O   0  0  0  0  0  0  0  0  0  0  0  0
  -15.8000  -27.1010  -11.0230 C   0  0  0  0  0  0  0  0  0  0  0  0
  -15.9110  -26.6130   -8.5460 C   0  0  0  0  0  0  0  0  0  0  0  0
  -14.6340  -27.1200   -8.2440 C   0  0  0  0  0  0  0  0  0  0  0  0
  -14.3210  -27.5480   -6.9790 C   0  0  0  0  0  0  0  0  0  0  0  0
  -15.2630  -27.4690   -5.9590 C   0  0  0  0  0  0  0  0  0  0  0  0
  -14.9480  -27.9030   -4.5590 C   0  0  0  0  0  0  0  0  0  0  0  0
  -16.5240  -26.9510   -6.2410 C   0  0  0  0  0  0  0  0  0  0  0  0
  -16.8450  -26.5250   -7.5260 C   0  0  0  0  0  0  0  0  0  0  0  0
  -13.0050  -27.5570  -14.6830 O   0  0  0  0  0  0  0  0  0  0  0  0
  -12.2590  -26.9700  -14.9030 H   0  0  0  0  0  0  0  0  0  0  0  0
  -12.8650  -26.1280  -12.2110 O   0  0  0  0  0  0  0  0  0  0  0  0
  -12.1510  -26.7580  -12.3250 H   0  0  0  0  0  0  0  0  0  0  0  0
  -15.4730  -27.3460  -16.0990 O   0  0  0  0  0  0  0  0  0  0  0  0
  -14.7230  -27.8760  -16.3880 H   0  0  0  0  0  0  0  0  0  0  0  0
  -17.8190  -26.7540  -14.6220 C   0  0  0  0  0  0  0  0  0  0  0  0
  -18.2320  -26.4840  -15.9940 O   0  0  0  0  0  0  0  0  0  0  0  0
  -17.8250  -25.6550  -16.3050 H   0  0  0  0  0  0  0  0  0  0  0  0
  1 12  1  1  0  0  0
  2  1  1  0  0  0  0
  2  3  1  0  0  0  0
  4  2  1  0  0  0  0
  5  4  1  0  0  0  0
  5 11  1  1  0  0  0
  6 21  1  0  0  0  0
  6  5  1  1  0  0  0
  7 19  1  6  0  0  0
  7  6  1  0  0  0  0
  8 23  1  6  0  0  0
  8  9  1  0  0  0  0
  8  7  1  0  0  0  0
  9 25  1  1  0  0  0
  9 10  1  0  0  0  0
 10  5  1  0  0  0  0
 11  1  1  0  0  0  0
 12 13  2  0  0  0  0
 12 18  1  0  0  0  0
 13 14  1  0  0  0  0
 14 15  2  0  0  0  0
 15 16  1  0  0  0  0
 17 15  1  0  0  0  0
 18 17  2  0  0  0  0
 20 19  1  0  0  0  0
 22 21  1  0  0  0  0
 24 23  1  0  0  0  0
 26 25  1  0  0  0  0
 27 26  1  0  0  0  0
M  END
>  <minimizedAffinity>
-7.29187346

$$$$

 OpenBabel12271914513D

 27 29  0  0  1  0  0  0  0  0999 V2000
  -26.9140  -25.8090   -2.8580 C   0  0  1  0  0  0  0  0  0  0  0  0
  -28.2670  -26.1290   -3.2490 N   0  0  0  0  0  0  0  0  0  0  0  0
  -28.9860  -25.3490   -3.3050 H   0  0  0  0  0  0  0  0  0  0  0  0
  -28.1940  -26.6520   -4.7310 O   0  0  0  0  0  0  0  0  0  0  0  0
  -26.7930  -26.8010   -4.9860 C   0  0  2  0  0  0  0  0  0  0  0  0
  -26.6080  -26.3000   -6.4140 C   0  0  1  0  0  0  0  0  0  0  0  0
  -26.3690  -27.4080   -7.3670 C   0  0  2  0  0  0  0  0  0  0  0  0
  -25.2580  -28.2160   -6.8280 C   0  0  1  0  0  0  0  0  0  0  0  0
  -25.8230  -28.9960   -5.6580 C   0  0  2  0  0  0  0  0  0  0  0  0
  -26.5210  -28.1950   -4.6540 O   0  0  0  0  0  0  0  0  0  0  0  0
  -26.0100  -25.9520   -4.0380 C   0  0  0  0  0  0  0  0  0  0  0  0
  -26.9370  -24.4750   -2.2090 C   0  0  0  0  0  0  0  0  0  0  0  0
  -28.1310  -24.0080   -1.6310 C   0  0  0  0  0  0  0  0  0  0  0  0
  -28.1950  -22.7770   -1.0300 C   0  0  0  0  0  0  0  0  0  0  0  0
  -27.0650  -21.9690   -0.9640 C   0  0  0  0  0  0  0  0  0  0  0  0
  -27.0920  -20.6290   -0.2930 C   0  0  0  0  0  0  0  0  0  0  0  0
  -25.8730  -22.4270   -1.5160 C   0  0  0  0  0  0  0  0  0  0  0  0
  -25.8090  -23.6730   -2.1340 C   0  0  0  0  0  0  0  0  0  0  0  0
  -25.9210  -26.7510   -8.5950 O   0  0  0  0  0  0  0  0  0  0  0  0
  -26.6930  -26.7320   -9.1900 H   0  0  0  0  0  0  0  0  0  0  0  0
  -27.7860  -25.5340   -6.8030 O   0  0  0  0  0  0  0  0  0  0  0  0
  -27.4830  -24.9420   -7.4940 H   0  0  0  0  0  0  0  0  0  0  0  0
  -24.8230  -29.2420   -7.7400 O   0  0  0  0  0  0  0  0  0  0  0  0
  -24.5860  -28.7950   -8.5580 H   0  0  0  0  0  0  0  0  0  0  0  0
  -24.7400  -29.7840   -4.9580 C   0  0  0  0  0  0  0  0  0  0  0  0
  -24.3510  -30.9900   -5.6810 O   0  0  0  0  0  0  0  0  0  0  0  0
  -25.1130  -31.3400   -6.1760 H   0  0  0  0  0  0  0  0  0  0  0  0
  1 12  1  6  0  0  0
  2  1  1  0  0  0  0
  3  2  1  0  0  0  0
  4  2  1  0  0  0  0
  5  4  1  0  0  0  0
  5 10  1  0  0  0  0
  5 11  1  1  0  0  0
  6  5  1  1  0  0  0
  7 19  1  6  0  0  0
  7  8  1  0  0  0  0
  7  6  1  0  0  0  0
  8 23  1  6  0  0  0
  8  9  1  0  0  0  0
  9 25  1  1  0  0  0
  9 10  1  0  0  0  0
 11  1  1  0  0  0  0
 12 18  2  0  0  0  0
 12 13  1  0  0  0  0
 13 14  2  0  0  0  0
 14 15  1  0  0  0  0
 15 16  1  0  0  0  0
 17 15  2  0  0  0  0
 18 17  1  0  0  0  0
 20 19  1  0  0  0  0
 21  6  1  0  0  0  0
 22 21  1  0  0  0  0
 24 23  1  0  0  0  0
 26 25  1  0  0  0  0
 27 26  1  0  0  0  0
M  END
>  <minimizedAffinity>
-7.19459295

$$$$

 OpenBabel12271914513D

 27 29  0  0  1  0  0  0  0  0999 V2000
  -17.0670  -26.8020  -11.3910 C   0  0  1  0  0  0  0  0  0  0  0  0
  -16.9310  -28.2260  -11.1930 N   0  0  0  0  0  0  0  0  0  0  0  0
  -16.1320  -28.7390  -11.6680 H   0  0  0  0  0  0  0  0  0  0  0  0
  -16.6320  -28.4410   -9.6640 O   0  0  0  0  0  0  0  0  0  0  0  0
  -16.8440  -27.1520   -9.0760 C   0  0  2  0  0  0  0  0  0  0  0  0
  -15.7220  -27.0060   -8.0550 C   0  0  1  0  0  0  0  0  0  0  0  0
  -16.2130  -27.1440   -6.6640 C   0  0  2  0  0  0  0  0  0  0  0  0
  -17.3420  -26.2080   -6.5050 C   0  0  1  0  0  0  0  0  0  0  0  0
  -18.5110  -26.8140   -7.2550 C   0  0  2  0  0  0  0  0  0  0  0  0
  -18.2360  -27.1880   -8.6410 O   0  0  0  0  0  0  0  0  0  0  0  0
  -16.7270  -26.0900  -10.1210 C   0  0  0  0  0  0  0  0  0  0  0  0
  -16.2630  -26.4340  -12.5820 C   0  0  0  0  0  0  0  0  0  0  0  0
  -16.8890  -26.3520  -13.8390 C   0  0  0  0  0  0  0  0  0  0  0  0
  -16.1780  -26.0240  -14.9660 C   0  0  0  0  0  0  0  0  0  0  0  0
  -14.8190  -25.7460  -14.8810 C   0  0  0  0  0  0  0  0  0  0  0  0
  -14.0150  -25.3600  -16.0870 C   0  0  0  0  0  0  0  0  0  0  0  0
  -14.1920  -25.8060  -13.6400 C   0  0  0  0  0  0  0  0  0  0  0  0
  -14.9100  -26.1470  -12.4970 C   0  0  0  0  0  0  0  0  0  0  0  0
  -15.1000  -26.6870   -5.8310 O   0  0  0  0  0  0  0  0  0  0  0  0
  -14.6630  -27.4910   -5.4970 H   0  0  0  0  0  0  0  0  0  0  0  0
  -14.6940  -28.0010   -8.3360 O   0  0  0  0  0  0  0  0  0  0  0  0
  -13.8870  -27.6410   -7.9620 H   0  0  0  0  0  0  0  0  0  0  0  0
  -17.8140  -26.1330   -5.1470 O   0  0  0  0  0  0  0  0  0  0  0  0
  -17.0550  -25.8840   -4.6090 H   0  0  0  0  0  0  0  0  0  0  0  0
  -19.7010  -25.8830   -7.2480 C   0  0  0  0  0  0  0  0  0  0  0  0
  -20.5240  -26.0130   -6.0510 O   0  0  0  0  0  0  0  0  0  0  0  0
  -20.4860  -26.9290   -5.7210 H   0  0  0  0  0  0  0  0  0  0  0  0
  1 12  1  6  0  0  0
  1  2  1  0  0  0  0
  1 11  1  0  0  0  0
  2  4  1  0  0  0  0
  3  2  1  0  0  0  0
  4  5  1  0  0  0  0
  5 11  1  6  0  0  0
  5 10  1  0  0  0  0
  6  5  1  6  0  0  0
  6  7  1  0  0  0  0
  7  8  1  0  0  0  0
  7 19  1  1  0  0  0
  8 23  1  1  0  0  0
  9 25  1  6  0  0  0
  9  8  1  0  0  0  0
 10  9  1  0  0  0  0
 12 18  1  0  0  0  0
 13 12  2  0  0  0  0
 14 15  2  0  0  0  0
 14 13  1  0  0  0  0
 15 17  1  0  0  0  0
 16 15  1  0  0  0  0
 17 18  2  0  0  0  0
 19 20  1  0  0  0  0
 21  6  1  0  0  0  0
 21 22  1  0  0  0  0
 23 24  1  0  0  0  0
 25 26  1  0  0  0  0
 26 27  1  0  0  0  0
M  END
>  <minimizedAffinity>
-7.09478712

$$$$

 OpenBabel12271914513D

 27 29  0  0  1  0  0  0  0  0999 V2000
  -19.7410  -27.3580   -9.0530 C   0  0  1  0  0  0  0  0  0  0  0  0
  -20.8770  -26.8070   -8.3500 N   0  0  0  0  0  0  0  0  0  0  0  0
  -20.8000  -25.8380   -7.9250 H   0  0  0  0  0  0  0  0  0  0  0  0
  -22.0250  -26.6410   -9.4110 O   0  0  0  0  0  0  0  0  0  0  0  0
  -21.5320  -27.3140  -10.5760 C   0  0  2  0  0  0  0  0  0  0  0  0
  -21.9520  -26.4240  -11.7400 C   0  0  1  0  0  0  0  0  0  0  0  0
  -23.0720  -27.0100  -12.5130 C   0  0  2  0  0  0  0  0  0  0  0  0
  -22.6790  -28.3860  -12.8740 C   0  0  1  0  0  0  0  0  0  0  0  0
  -22.7820  -29.2080  -11.6060 C   0  0  2  0  0  0  0  0  0  0  0  0
  -22.0650  -28.6670  -10.4530 O   0  0  0  0  0  0  0  0  0  0  0  0
  -20.0420  -27.4110  -10.5150 C   0  0  0  0  0  0  0  0  0  0  0  0
  -18.5450  -26.5720   -8.6600 C   0  0  0  0  0  0  0  0  0  0  0  0
  -17.4910  -26.4120   -9.5770 C   0  0  0  0  0  0  0  0  0  0  0  0
  -16.3650  -25.7010   -9.2480 C   0  0  0  0  0  0  0  0  0  0  0  0
  -16.2540  -25.1050   -7.9970 C   0  0  0  0  0  0  0  0  0  0  0  0
  -15.0490  -24.2990   -7.6120 C   0  0  0  0  0  0  0  0  0  0  0  0
  -17.2980  -25.2400   -7.0870 C   0  0  0  0  0  0  0  0  0  0  0  0
  -18.4370  -25.9690   -7.4170 C   0  0  0  0  0  0  0  0  0  0  0  0
  -23.1410  -26.2040  -13.7330 O   0  0  0  0  0  0  0  0  0  0  0  0
  -23.8790  -25.5810  -13.6040 H   0  0  0  0  0  0  0  0  0  0  0  0
  -22.3190  -25.1110  -11.2230 O   0  0  0  0  0  0  0  0  0  0  0  0
  -22.1920  -24.5080  -11.9590 H   0  0  0  0  0  0  0  0  0  0  0  0
  -23.6210  -29.0170  -13.7630 O   0  0  0  0  0  0  0  0  0  0  0  0
  -23.6930  -28.4430  -14.5330 H   0  0  0  0  0  0  0  0  0  0  0  0
  -22.2990  -30.6220  -11.8360 C   0  0  0  0  0  0  0  0  0  0  0  0
  -21.1110  -30.9560  -11.0580 O   0  0  0  0  0  0  0  0  0  0  0  0
  -20.5680  -30.1580  -10.9240 H   0  0  0  0  0  0  0  0  0  0  0  0
  1 12  1  6  0  0  0
  1  2  1  0  0  0  0
  2  3  1  0  0  0  0
  4  2  1  0  0  0  0
  5 11  1  1  0  0  0
  5 10  1  0  0  0  0
  5  4  1  0  0  0  0
  6 21  1  0  0  0  0
  6  5  1  1  0  0  0
  7 19  1  6  0  0  0
  7  6  1  0  0  0  0
  8 23  1  6  0  0  0
  8  7  1  0  0  0  0
  8  9  1  0  0  0  0
  9 25  1  6  0  0  0
  9 10  1  0  0  0  0
 11  1  1  0  0  0  0
 12 18  2  0  0  0  0
 13 14  2  0  0  0  0
 13 12  1  0  0  0  0
 14 15  1  0  0  0  0
 15 16  1  0  0  0  0
 15 17  2  0  0  0  0
 18 17  1  0  0  0  0
 19 20  1  0  0  0  0
 22 21  1  0  0  0  0
 24 23  1  0  0  0  0
 25 26  1  0  0  0  0
 26 27  1  0  0  0  0
M  END
>  <minimizedAffinity>
-6.9610281

$$$$
