
 OpenBabel12271914403D

 37 41  0  0  1  0  0  0  0  0999 V2000
  -15.4530  -26.3230  -11.1240 C   0  0  2  0  0  0  0  0  0  0  0  0
  -15.9370  -27.4890  -10.4480 O   0  0  0  0  0  0  0  0  0  0  0  0
  -17.2240  -27.6700  -10.0720 C   0  0  0  0  0  0  0  0  0  0  0  0
  -17.5210  -28.5540   -9.3170 O   0  0  0  0  0  0  0  0  0  0  0  0
  -18.2240  -26.7380  -10.6320 C   0  0  1  0  0  0  0  0  0  0  0  0
  -17.9430  -25.7350  -11.5180 C   0  0  0  0  0  0  0  0  0  0  0  0
  -18.6990  -24.9000  -12.0570 O   0  0  0  0  0  0  0  0  0  0  0  0
  -16.4710  -25.5730  -11.9660 C   0  0  0  0  0  0  0  0  0  0  0  0
  -14.2590  -26.8090  -12.0020 C   0  0  0  0  0  0  0  0  0  0  0  0
  -13.3950  -25.6620  -12.5150 C   0  0  0  0  0  0  0  0  0  0  0  0
  -13.4930  -25.6610  -14.0250 C   0  0  0  0  0  0  0  0  0  0  0  0
  -14.0020  -27.0360  -14.4190 C   0  0  0  0  0  0  0  0  0  0  0  0
  -14.7900  -27.5420  -13.2440 C   0  0  0  0  0  0  0  0  0  0  0  0
  -19.6390  -27.0090  -10.1530 C   0  0  0  0  0  0  0  0  0  0  0  0
  -20.5120  -27.9870  -10.9990 C   0  0  0  0  0  0  0  0  0  0  0  0
  -21.5020  -28.7980  -10.3890 N   0  0  0  0  0  0  0  0  0  0  0  0
  -21.9850  -29.4800  -11.4450 C   0  0  0  0  0  0  0  0  0  0  0  0
  -22.9780  -30.4450  -11.4930 N   0  0  0  0  0  0  0  0  0  0  0  0
  -23.2630  -31.0410  -12.6430 C   0  0  0  0  0  0  0  0  0  0  0  0
  -24.3240  -32.1060  -12.7410 C   0  0  0  0  0  0  0  0  0  0  0  0
  -22.5170  -30.6690  -13.8750 C   0  0  0  0  0  0  0  0  0  0  0  0
  -21.5660  -29.7290  -13.7850 C   0  0  0  0  0  0  0  0  0  0  0  0
  -20.7620  -29.3070  -14.9810 C   0  0  0  0  0  0  0  0  0  0  0  0
  -21.2910  -29.1270  -12.5740 N   0  0  0  0  0  0  0  0  0  0  0  0
  -20.3210  -28.2180  -12.2450 N   0  0  0  0  0  0  0  0  0  0  0  0
  -14.7850  -25.3410  -10.1260 C   0  0  0  0  0  0  0  0  0  0  0  0
  -13.9520  -26.0410   -9.0770 C   0  0  0  0  0  0  0  0  0  0  0  0
  -16.6860  -25.6350   -6.5890 C   0  0  0  0  0  0  0  0  0  0  0  0
  -16.3450  -26.5060   -5.5760 N   0  0  0  0  0  0  0  0  0  0  0  0
  -15.2090  -27.2240   -5.7330 C   0  0  0  0  0  0  0  0  0  0  0  0
  -14.4210  -27.0920   -6.8310 C   0  0  0  0  0  0  0  0  0  0  0  0
  -14.7790  -26.2160   -7.8780 C   0  0  0  0  0  0  0  0  0  0  0  0
  -15.9550  -25.4850   -7.6940 C   0  0  0  0  0  0  0  0  0  0  0  0
  -19.1360  -25.8810   -6.4760 C   0  0  0  0  0  0  0  0  0  0  0  0
  -17.9970  -24.8770   -6.4100 C   0  0  0  0  0  0  0  0  0  0  0  0
  -14.8170  -28.1660   -4.6060 C   0  0  0  0  0  0  0  0  0  0  0  0
  -15.9010  -28.1880   -3.5370 C   0  0  0  0  0  0  0  0  0  0  0  0
  1  2  1  0  0  0  0
  1 26  1  1  0  0  0
  2  3  1  0  0  0  0
  3  4  2  0  0  0  0
  5 14  1  6  0  0  0
  5  3  1  0  0  0  0
  6  5  1  0  0  0  0
  7  6  2  0  0  0  0
  8  6  1  0  0  0  0
  8  1  1  0  0  0  0
  9  1  1  0  0  0  0
 10  9  1  0  0  0  0
 11 10  1  0  0  0  0
 12 11  1  0  0  0  0
 12 13  1  0  0  0  0
 13  9  1  0  0  0  0
 15 16  2  0  0  0  0
 15 14  1  0  0  0  0
 17 16  2  0  0  0  0
 18 17  2  0  0  0  0
 19 18  2  0  0  0  0
 20 19  1  0  0  0  0
 21 22  2  0  0  0  0
 21 19  1  0  0  0  0
 22 24  1  0  0  0  0
 23 22  1  0  0  0  0
 24 25  1  0  0  0  0
 24 17  1  0  0  0  0
 25 15  2  0  0  0  0
 26 27  1  0  0  0  0
 27 32  1  0  0  0  0
 28 35  1  0  0  0  0
 28 29  2  0  0  0  0
 30 29  2  0  0  0  0
 30 36  1  0  0  0  0
 31 30  1  0  0  0  0
 32 33  2  0  0  0  0
 32 31  1  0  0  0  0
 33 28  1  0  0  0  0
 34 35  1  0  0  0  0
 36 37  1  0  0  0  0
M  END
>  <minimizedAffinity>
-9.58757782

$$$$

 OpenBabel12271914403D

 37 41  0  0  1  0  0  0  0  0999 V2000
  -15.3030  -26.1960  -11.0350 C   0  0  2  0  0  0  0  0  0  0  0  0
  -15.7920  -27.4150  -10.4620 O   0  0  0  0  0  0  0  0  0  0  0  0
  -17.0980  -27.6710  -10.2200 C   0  0  0  0  0  0  0  0  0  0  0  0
  -17.4220  -28.6040   -9.5390 O   0  0  0  0  0  0  0  0  0  0  0  0
  -18.0850  -26.7560  -10.8300 C   0  0  1  0  0  0  0  0  0  0  0  0
  -17.7710  -25.6990  -11.6390 C   0  0  0  0  0  0  0  0  0  0  0  0
  -18.5120  -24.8710  -12.2090 O   0  0  0  0  0  0  0  0  0  0  0  0
  -16.2730  -25.4500  -11.9350 C   0  0  0  0  0  0  0  0  0  0  0  0
  -14.0100  -26.5850  -11.8150 C   0  0  0  0  0  0  0  0  0  0  0  0
  -13.2160  -25.3730  -12.2890 C   0  0  0  0  0  0  0  0  0  0  0  0
  -13.2040  -25.4010  -13.8020 C   0  0  0  0  0  0  0  0  0  0  0  0
  -13.5590  -26.8220  -14.2030 C   0  0  0  0  0  0  0  0  0  0  0  0
  -14.3830  -27.3800  -13.0770 C   0  0  0  0  0  0  0  0  0  0  0  0
  -19.5240  -27.1120  -10.5030 C   0  0  0  0  0  0  0  0  0  0  0  0
  -20.3260  -27.9230  -11.5660 C   0  0  0  0  0  0  0  0  0  0  0  0
  -21.7340  -27.7880  -11.6800 N   0  0  0  0  0  0  0  0  0  0  0  0
  -22.0110  -28.6540  -12.6730 C   0  0  0  0  0  0  0  0  0  0  0  0
  -23.2310  -28.9820  -13.2440 N   0  0  0  0  0  0  0  0  0  0  0  0
  -23.2900  -29.9150  -14.1840 C   0  0  0  0  0  0  0  0  0  0  0  0
  -24.5950  -30.3150  -14.8220 C   0  0  0  0  0  0  0  0  0  0  0  0
  -22.0470  -30.6030  -14.6230 C   0  0  0  0  0  0  0  0  0  0  0  0
  -20.8870  -30.2540  -14.0480 C   0  0  0  0  0  0  0  0  0  0  0  0
  -19.5910  -30.9100  -14.4300 C   0  0  0  0  0  0  0  0  0  0  0  0
  -20.8570  -29.2790  -13.0710 N   0  0  0  0  0  0  0  0  0  0  0  0
  -19.8120  -28.8350  -12.3060 N   0  0  0  0  0  0  0  0  0  0  0  0
  -14.7800  -25.2380   -9.9330 C   0  0  0  0  0  0  0  0  0  0  0  0
  -13.9550  -25.9420   -8.8810 C   0  0  0  0  0  0  0  0  0  0  0  0
  -15.2270  -27.2830   -5.6550 C   0  0  0  0  0  0  0  0  0  0  0  0
  -16.4370  -26.6440   -5.4840 N   0  0  0  0  0  0  0  0  0  0  0  0
  -16.8170  -25.7680   -6.4430 C   0  0  0  0  0  0  0  0  0  0  0  0
  -16.0530  -25.5300   -7.5410 C   0  0  0  0  0  0  0  0  0  0  0  0
  -14.8060  -26.1680   -7.7080 C   0  0  0  0  0  0  0  0  0  0  0  0
  -14.4350  -27.0670   -6.7050 C   0  0  0  0  0  0  0  0  0  0  0  0
  -15.8860  -28.2130   -3.4700 C   0  0  0  0  0  0  0  0  0  0  0  0
  -14.8010  -28.2250   -4.5340 C   0  0  0  0  0  0  0  0  0  0  0  0
  -18.1620  -25.0810   -6.2700 C   0  0  0  0  0  0  0  0  0  0  0  0
  -19.1630  -26.0380   -5.6380 C   0  0  0  0  0  0  0  0  0  0  0  0
  1  2  1  0  0  0  0
  1 26  1  1  0  0  0
  2  3  1  0  0  0  0
  3  4  2  0  0  0  0
  5 14  1  6  0  0  0
  5  3  1  0  0  0  0
  6  5  1  0  0  0  0
  7  6  2  0  0  0  0
  8  6  1  0  0  0  0
  8  1  1  0  0  0  0
  9  1  1  0  0  0  0
 10  9  1  0  0  0  0
 11 10  1  0  0  0  0
 12 11  1  0  0  0  0
 12 13  1  0  0  0  0
 13  9  1  0  0  0  0
 15 14  1  0  0  0  0
 16 15  2  0  0  0  0
 17 16  2  0  0  0  0
 18 17  2  0  0  0  0
 19 18  2  0  0  0  0
 20 19  1  0  0  0  0
 21 19  1  0  0  0  0
 21 22  2  0  0  0  0
 22 24  1  0  0  0  0
 23 22  1  0  0  0  0
 24 17  1  0  0  0  0
 24 25  1  0  0  0  0
 25 15  2  0  0  0  0
 26 27  1  0  0  0  0
 27 32  1  0  0  0  0
 28 29  2  0  0  0  0
 28 35  1  0  0  0  0
 30 36  1  0  0  0  0
 30 29  2  0  0  0  0
 31 30  1  0  0  0  0
 32 31  1  0  0  0  0
 32 33  2  0  0  0  0
 33 28  1  0  0  0  0
 35 34  1  0  0  0  0
 36 37  1  0  0  0  0
M  END
>  <minimizedAffinity>
-9.5492363

$$$$

 OpenBabel12271914403D

 37 41  0  0  1  0  0  0  0  0999 V2000
  -27.4060  -26.4490   -5.3310 C   0  0  2  0  0  0  0  0  0  0  0  0
  -27.3450  -25.1370   -5.9000 O   0  0  0  0  0  0  0  0  0  0  0  0
  -26.3710  -24.7170   -6.7410 C   0  0  0  0  0  0  0  0  0  0  0  0
  -26.2500  -23.5530   -7.0030 O   0  0  0  0  0  0  0  0  0  0  0  0
  -25.4840  -25.7530   -7.3090 C   0  0  1  0  0  0  0  0  0  0  0  0
  -25.5990  -27.0940   -7.0690 C   0  0  0  0  0  0  0  0  0  0  0  0
  -24.9180  -28.0520   -7.4930 O   0  0  0  0  0  0  0  0  0  0  0  0
  -26.7450  -27.5540   -6.1360 C   0  0  0  0  0  0  0  0  0  0  0  0
  -28.9220  -26.7480   -5.1200 C   0  0  0  0  0  0  0  0  0  0  0  0
  -29.1790  -27.7480   -3.9980 C   0  0  0  0  0  0  0  0  0  0  0  0
  -29.8210  -28.9710   -4.6180 C   0  0  0  0  0  0  0  0  0  0  0  0
  -30.3630  -28.5280   -5.9660 C   0  0  0  0  0  0  0  0  0  0  0  0
  -29.5130  -27.3660   -6.3970 C   0  0  0  0  0  0  0  0  0  0  0  0
  -24.4180  -25.1960   -8.2350 C   0  0  0  0  0  0  0  0  0  0  0  0
  -22.9360  -25.5920   -7.9500 C   0  0  0  0  0  0  0  0  0  0  0  0
  -22.3590  -25.3920   -6.6700 N   0  0  0  0  0  0  0  0  0  0  0  0
  -21.1020  -25.8370   -6.8660 C   0  0  0  0  0  0  0  0  0  0  0  0
  -20.0380  -25.8940   -5.9800 N   0  0  0  0  0  0  0  0  0  0  0  0
  -18.8540  -26.3190   -6.3980 C   0  0  0  0  0  0  0  0  0  0  0  0
  -17.6650  -26.3850   -5.4750 C   0  0  0  0  0  0  0  0  0  0  0  0
  -18.6740  -26.7340   -7.8150 C   0  0  0  0  0  0  0  0  0  0  0  0
  -19.7290  -26.6660   -8.6380 C   0  0  0  0  0  0  0  0  0  0  0  0
  -19.6250  -27.0560  -10.0850 C   0  0  0  0  0  0  0  0  0  0  0  0
  -20.9500  -26.2190   -8.1740 N   0  0  0  0  0  0  0  0  0  0  0  0
  -22.1190  -25.9940   -8.8520 N   0  0  0  0  0  0  0  0  0  0  0  0
  -26.8380  -26.4530   -3.8870 C   0  0  0  0  0  0  0  0  0  0  0  0
  -25.9650  -25.2550   -3.5930 C   0  0  0  0  0  0  0  0  0  0  0  0
  -26.6060  -22.6600   -1.0090 C   0  0  0  0  0  0  0  0  0  0  0  0
  -27.9260  -22.8560   -0.6620 N   0  0  0  0  0  0  0  0  0  0  0  0
  -28.5920  -23.8490   -1.2950 C   0  0  0  0  0  0  0  0  0  0  0  0
  -27.9930  -24.6360   -2.2260 C   0  0  0  0  0  0  0  0  0  0  0  0
  -26.6490  -24.4240   -2.5970 C   0  0  0  0  0  0  0  0  0  0  0  0
  -25.9820  -23.3940   -1.9300 C   0  0  0  0  0  0  0  0  0  0  0  0
  -26.9420  -20.4700    0.0730 C   0  0  0  0  0  0  0  0  0  0  0  0
  -25.8950  -21.5010   -0.3180 C   0  0  0  0  0  0  0  0  0  0  0  0
  -30.0400  -24.0850   -0.8960 C   0  0  0  0  0  0  0  0  0  0  0  0
  -30.4870  -25.4740   -1.3310 C   0  0  0  0  0  0  0  0  0  0  0  0
  1  9  1  0  0  0  0
  1 26  1  1  0  0  0
  2  1  1  0  0  0  0
  3  2  1  0  0  0  0
  4  3  2  0  0  0  0
  5 14  1  6  0  0  0
  5  6  1  0  0  0  0
  5  3  1  0  0  0  0
  6  8  1  0  0  0  0
  7  6  2  0  0  0  0
  8  1  1  0  0  0  0
  9 10  1  0  0  0  0
 11 10  1  0  0  0  0
 12 11  1  0  0  0  0
 13 12  1  0  0  0  0
 13  9  1  0  0  0  0
 14 15  1  0  0  0  0
 15 16  2  0  0  0  0
 17 16  2  0  0  0  0
 17 18  2  0  0  0  0
 19 18  2  0  0  0  0
 19 20  1  0  0  0  0
 21 19  1  0  0  0  0
 22 24  1  0  0  0  0
 22 21  2  0  0  0  0
 23 22  1  0  0  0  0
 24 17  1  0  0  0  0
 25 24  1  0  0  0  0
 25 15  2  0  0  0  0
 26 27  1  0  0  0  0
 27 32  1  0  0  0  0
 28 29  2  0  0  0  0
 28 35  1  0  0  0  0
 30 36  1  0  0  0  0
 30 29  2  0  0  0  0
 31 30  1  0  0  0  0
 32 31  1  0  0  0  0
 32 33  2  0  0  0  0
 33 28  1  0  0  0  0
 35 34  1  0  0  0  0
 37 36  1  0  0  0  0
M  END
>  <minimizedAffinity>
-9.4332037

$$$$

 OpenBabel12271914403D

 37 41  0  0  1  0  0  0  0  0999 V2000
  -20.2350  -27.8360  -10.6710 C   0  0  2  0  0  0  0  0  0  0  0  0
  -21.4050  -28.6570  -10.5780 O   0  0  0  0  0  0  0  0  0  0  0  0
  -22.6310  -28.1970  -10.2370 C   0  0  0  0  0  0  0  0  0  0  0  0
  -23.5140  -28.9600   -9.9580 O   0  0  0  0  0  0  0  0  0  0  0  0
  -22.8190  -26.7320  -10.2270 C   0  0  1  0  0  0  0  0  0  0  0  0
  -21.8570  -25.8210  -10.5670 C   0  0  0  0  0  0  0  0  0  0  0  0
  -21.9030  -24.5740  -10.6020 O   0  0  0  0  0  0  0  0  0  0  0  0
  -20.4750  -26.3720  -10.9940 C   0  0  0  0  0  0  0  0  0  0  0  0
  -19.3370  -28.5030  -11.7580 C   0  0  0  0  0  0  0  0  0  0  0  0
  -18.1840  -29.3040  -11.1640 C   0  0  0  0  0  0  0  0  0  0  0  0
  -16.8960  -28.6480  -11.6140 C   0  0  0  0  0  0  0  0  0  0  0  0
  -17.2540  -27.7860  -12.8120 C   0  0  0  0  0  0  0  0  0  0  0  0
  -18.7020  -27.4200  -12.6450 C   0  0  0  0  0  0  0  0  0  0  0  0
  -24.2190  -26.3040   -9.8280 C   0  0  0  0  0  0  0  0  0  0  0  0
  -24.5260  -26.1720   -8.3030 C   0  0  0  0  0  0  0  0  0  0  0  0
  -24.6420  -24.8990   -7.6880 N   0  0  0  0  0  0  0  0  0  0  0  0
  -24.8800  -25.2370   -6.4060 C   0  0  0  0  0  0  0  0  0  0  0  0
  -25.0790  -24.4240   -5.3010 N   0  0  0  0  0  0  0  0  0  0  0  0
  -25.2420  -24.9680   -4.1030 C   0  0  0  0  0  0  0  0  0  0  0  0
  -25.4460  -24.1240   -2.8720 C   0  0  0  0  0  0  0  0  0  0  0  0
  -25.2130  -26.4470   -3.9520 C   0  0  0  0  0  0  0  0  0  0  0  0
  -25.0220  -27.1970   -5.0460 C   0  0  0  0  0  0  0  0  0  0  0  0
  -24.9690  -28.6960   -4.9730 C   0  0  0  0  0  0  0  0  0  0  0  0
  -24.8540  -26.6020   -6.2800 N   0  0  0  0  0  0  0  0  0  0  0  0
  -24.5670  -27.1650   -7.4950 N   0  0  0  0  0  0  0  0  0  0  0  0
  -19.3780  -27.9470   -9.3830 C   0  0  0  0  0  0  0  0  0  0  0  0
  -19.1240  -26.6110   -8.7250 C   0  0  0  0  0  0  0  0  0  0  0  0
  -15.6620  -25.6930   -9.7230 C   0  0  0  0  0  0  0  0  0  0  0  0
  -14.9020  -26.0090   -8.6160 N   0  0  0  0  0  0  0  0  0  0  0  0
  -15.5520  -26.5220   -7.5450 C   0  0  0  0  0  0  0  0  0  0  0  0
  -16.8930  -26.7340   -7.5520 C   0  0  0  0  0  0  0  0  0  0  0  0
  -17.6740  -26.3930   -8.6770 C   0  0  0  0  0  0  0  0  0  0  0  0
  -16.9830  -25.8650   -9.7690 C   0  0  0  0  0  0  0  0  0  0  0  0
  -14.0300  -26.1400  -11.5150 C   0  0  0  0  0  0  0  0  0  0  0  0
  -14.9130  -25.0690  -10.8950 C   0  0  0  0  0  0  0  0  0  0  0  0
  -14.7130  -26.8960   -6.3330 C   0  0  0  0  0  0  0  0  0  0  0  0
  -15.6090  -27.4010   -5.2100 C   0  0  0  0  0  0  0  0  0  0  0  0
  1  2  1  0  0  0  0
  1 26  1  1  0  0  0
  2  3  1  0  0  0  0
  3  5  1  0  0  0  0
  3  4  2  0  0  0  0
  5 14  1  6  0  0  0
  6  5  1  0  0  0  0
  7  6  2  0  0  0  0
  8  1  1  0  0  0  0
  8  6  1  0  0  0  0
  9 10  1  0  0  0  0
  9  1  1  0  0  0  0
 11 10  1  0  0  0  0
 12 13  1  0  0  0  0
 12 11  1  0  0  0  0
 13  9  1  0  0  0  0
 14 15  1  0  0  0  0
 15 16  2  0  0  0  0
 15 25  2  0  0  0  0
 16 17  2  0  0  0  0
 17 24  1  0  0  0  0
 17 18  2  0  0  0  0
 18 19  2  0  0  0  0
 19 21  1  0  0  0  0
 19 20  1  0  0  0  0
 22 23  1  0  0  0  0
 22 21  2  0  0  0  0
 24 22  1  0  0  0  0
 25 24  1  0  0  0  0
 26 27  1  0  0  0  0
 27 32  1  0  0  0  0
 28 29  2  0  0  0  0
 29 30  2  0  0  0  0
 30 36  1  0  0  0  0
 31 30  1  0  0  0  0
 32 31  1  0  0  0  0
 33 28  1  0  0  0  0
 33 32  2  0  0  0  0
 34 35  1  0  0  0  0
 35 28  1  0  0  0  0
 36 37  1  0  0  0  0
M  END
>  <minimizedAffinity>
-9.36599159

$$$$

 OpenBabel12271914403D

 37 41  0  0  1  0  0  0  0  0999 V2000
  -20.0240  -27.1700  -10.4190 C   0  0  2  0  0  0  0  0  0  0  0  0
  -21.0460  -28.1600  -10.5850 O   0  0  0  0  0  0  0  0  0  0  0  0
  -22.3480  -27.9670  -10.2730 C   0  0  0  0  0  0  0  0  0  0  0  0
  -23.1070  -28.8950  -10.2200 O   0  0  0  0  0  0  0  0  0  0  0  0
  -22.7760  -26.5790  -10.0080 C   0  0  1  0  0  0  0  0  0  0  0  0
  -21.9600  -25.4840  -10.0860 C   0  0  0  0  0  0  0  0  0  0  0  0
  -22.2090  -24.2760   -9.8910 O   0  0  0  0  0  0  0  0  0  0  0  0
  -20.4840  -25.7240  -10.4840 C   0  0  0  0  0  0  0  0  0  0  0  0
  -18.9670  -27.4650  -11.5270 C   0  0  0  0  0  0  0  0  0  0  0  0
  -17.8640  -28.4080  -11.0580 C   0  0  0  0  0  0  0  0  0  0  0  0
  -16.5600  -27.6420  -11.1080 C   0  0  0  0  0  0  0  0  0  0  0  0
  -16.8010  -26.4520  -12.0220 C   0  0  0  0  0  0  0  0  0  0  0  0
  -18.2730  -26.1590  -11.9460 C   0  0  0  0  0  0  0  0  0  0  0  0
  -24.2480  -26.4540   -9.6610 C   0  0  0  0  0  0  0  0  0  0  0  0
  -24.6210  -26.2470   -8.1600 C   0  0  0  0  0  0  0  0  0  0  0  0
  -24.7710  -24.9450   -7.6170 N   0  0  0  0  0  0  0  0  0  0  0  0
  -25.0620  -25.2190   -6.3300 C   0  0  0  0  0  0  0  0  0  0  0  0
  -25.3130  -24.3520   -5.2780 N   0  0  0  0  0  0  0  0  0  0  0  0
  -25.5240  -24.8350   -4.0620 C   0  0  0  0  0  0  0  0  0  0  0  0
  -25.7860  -23.9310   -2.8850 C   0  0  0  0  0  0  0  0  0  0  0  0
  -25.4920  -26.3040   -3.8330 C   0  0  0  0  0  0  0  0  0  0  0  0
  -25.2490  -27.1080   -4.8780 C   0  0  0  0  0  0  0  0  0  0  0  0
  -25.1900  -28.6010   -4.7250 C   0  0  0  0  0  0  0  0  0  0  0  0
  -25.0330  -26.5750   -6.1330 N   0  0  0  0  0  0  0  0  0  0  0  0
  -24.6900  -27.1980   -7.3040 N   0  0  0  0  0  0  0  0  0  0  0  0
  -19.2360  -27.4030   -9.1040 C   0  0  0  0  0  0  0  0  0  0  0  0
  -18.9920  -26.1300   -8.3270 C   0  0  0  0  0  0  0  0  0  0  0  0
  -16.3620  -26.8700   -5.8050 C   0  0  0  0  0  0  0  0  0  0  0  0
  -15.2010  -26.4100   -6.3910 N   0  0  0  0  0  0  0  0  0  0  0  0
  -15.3050  -25.8610   -7.6240 C   0  0  0  0  0  0  0  0  0  0  0  0
  -16.4980  -25.7490   -8.2620 C   0  0  0  0  0  0  0  0  0  0  0  0
  -17.6830  -26.2370   -7.6720 C   0  0  0  0  0  0  0  0  0  0  0  0
  -17.5520  -26.7990   -6.4010 C   0  0  0  0  0  0  0  0  0  0  0  0
  -14.8520  -28.2170   -4.3960 C   0  0  0  0  0  0  0  0  0  0  0  0
  -16.2080  -27.5300   -4.4390 C   0  0  0  0  0  0  0  0  0  0  0  0
  -14.0310  -25.3290   -8.2610 C   0  0  0  0  0  0  0  0  0  0  0  0
  -13.0930  -26.4800   -8.6020 C   0  0  0  0  0  0  0  0  0  0  0  0
  1 26  1  1  0  0  0
  2  1  1  0  0  0  0
  2  3  1  0  0  0  0
  3  4  2  0  0  0  0
  3  5  1  0  0  0  0
  5 14  1  6  0  0  0
  6  5  1  0  0  0  0
  6  7  2  0  0  0  0
  8  1  1  0  0  0  0
  8  6  1  0  0  0  0
  9 10  1  0  0  0  0
  9  1  1  0  0  0  0
 11 10  1  0  0  0  0
 12 13  1  0  0  0  0
 12 11  1  0  0  0  0
 13  9  1  0  0  0  0
 14 15  1  0  0  0  0
 15 16  2  0  0  0  0
 15 25  2  0  0  0  0
 16 17  2  0  0  0  0
 17 24  1  0  0  0  0
 17 18  2  0  0  0  0
 18 19  2  0  0  0  0
 19 21  1  0  0  0  0
 19 20  1  0  0  0  0
 22 23  1  0  0  0  0
 22 21  2  0  0  0  0
 24 22  1  0  0  0  0
 25 24  1  0  0  0  0
 26 27  1  0  0  0  0
 27 32  1  0  0  0  0
 28 35  1  0  0  0  0
 29 28  2  0  0  0  0
 30 29  2  0  0  0  0
 31 32  1  0  0  0  0
 31 30  1  0  0  0  0
 32 33  2  0  0  0  0
 33 28  1  0  0  0  0
 35 34  1  0  0  0  0
 36 30  1  0  0  0  0
 37 36  1  0  0  0  0
M  END
>  <minimizedAffinity>
-9.27364731

$$$$

 OpenBabel12271914403D

 37 41  0  0  1  0  0  0  0  0999 V2000
  -19.6340  -26.8570   -9.1190 C   0  0  2  0  0  0  0  0  0  0  0  0
  -19.1610  -25.9560  -10.1280 O   0  0  0  0  0  0  0  0  0  0  0  0
  -18.0390  -26.1520  -10.8570 C   0  0  0  0  0  0  0  0  0  0  0  0
  -17.5770  -25.2640  -11.5180 O   0  0  0  0  0  0  0  0  0  0  0  0
  -17.4240  -27.4940  -10.7960 C   0  0  1  0  0  0  0  0  0  0  0  0
  -17.9270  -28.5480  -10.0830 C   0  0  0  0  0  0  0  0  0  0  0  0
  -17.5020  -29.7160   -9.9630 O   0  0  0  0  0  0  0  0  0  0  0  0
  -19.2340  -28.3130   -9.2900 C   0  0  0  0  0  0  0  0  0  0  0  0
  -21.1850  -26.7060   -9.1110 C   0  0  0  0  0  0  0  0  0  0  0  0
  -21.7040  -25.8520  -10.2630 C   0  0  0  0  0  0  0  0  0  0  0  0
  -22.3590  -24.6270   -9.6620 C   0  0  0  0  0  0  0  0  0  0  0  0
  -22.6460  -24.9680   -8.2100 C   0  0  0  0  0  0  0  0  0  0  0  0
  -21.6330  -26.0070   -7.8170 C   0  0  0  0  0  0  0  0  0  0  0  0
  -16.1680  -27.6240  -11.6360 C   0  0  0  0  0  0  0  0  0  0  0  0
  -16.2630  -28.4580  -12.9510 C   0  0  0  0  0  0  0  0  0  0  0  0
  -15.2620  -28.3620  -13.9530 N   0  0  0  0  0  0  0  0  0  0  0  0
  -15.7350  -29.2040  -14.8910 C   0  0  0  0  0  0  0  0  0  0  0  0
  -15.2020  -29.5380  -16.1260 N   0  0  0  0  0  0  0  0  0  0  0  0
  -15.8660  -30.3550  -16.9330 C   0  0  0  0  0  0  0  0  0  0  0  0
  -15.3330  -30.7340  -18.2890 C   0  0  0  0  0  0  0  0  0  0  0  0
  -17.1790  -30.9100  -16.5060 C   0  0  0  0  0  0  0  0  0  0  0  0
  -17.6570  -30.5640  -15.3030 C   0  0  0  0  0  0  0  0  0  0  0  0
  -18.9790  -31.0740  -14.8060 C   0  0  0  0  0  0  0  0  0  0  0  0
  -16.9430  -29.7110  -14.4860 N   0  0  0  0  0  0  0  0  0  0  0  0
  -17.2790  -29.1700  -13.2730 N   0  0  0  0  0  0  0  0  0  0  0  0
  -19.2200  -26.3710   -7.7050 C   0  0  0  0  0  0  0  0  0  0  0  0
  -18.1070  -25.3490   -7.7340 C   0  0  0  0  0  0  0  0  0  0  0  0
  -14.6040  -26.4940   -7.2410 C   0  0  0  0  0  0  0  0  0  0  0  0
  -14.6350  -27.1470   -6.0270 N   0  0  0  0  0  0  0  0  0  0  0  0
  -15.8230  -27.1960   -5.3810 C   0  0  0  0  0  0  0  0  0  0  0  0
  -16.9480  -26.6410   -5.9020 C   0  0  0  0  0  0  0  0  0  0  0  0
  -16.9130  -25.9560   -7.1350 C   0  0  0  0  0  0  0  0  0  0  0  0
  -15.6770  -25.9190   -7.7840 C   0  0  0  0  0  0  0  0  0  0  0  0
  -13.4640  -26.0250   -9.3760 C   0  0  0  0  0  0  0  0  0  0  0  0
  -13.2420  -26.4090   -7.9220 C   0  0  0  0  0  0  0  0  0  0  0  0
  -15.8670  -27.9370   -4.0540 C   0  0  0  0  0  0  0  0  0  0  0  0
  -14.5650  -28.6940   -3.8310 C   0  0  0  0  0  0  0  0  0  0  0  0
  1  9  1  0  0  0  0
  1 26  1  1  0  0  0
  2  1  1  0  0  0  0
  3  5  1  0  0  0  0
  3  2  1  0  0  0  0
  4  3  2  0  0  0  0
  5 14  1  6  0  0  0
  5  6  1  0  0  0  0
  6  7  2  0  0  0  0
  6  8  1  0  0  0  0
  8  1  1  0  0  0  0
  9 13  1  0  0  0  0
 10 11  1  0  0  0  0
 10  9  1  0  0  0  0
 11 12  1  0  0  0  0
 12 13  1  0  0  0  0
 15 14  1  0  0  0  0
 16 15  2  0  0  0  0
 17 24  1  0  0  0  0
 17 16  2  0  0  0  0
 18 17  2  0  0  0  0
 19 21  1  0  0  0  0
 19 18  2  0  0  0  0
 20 19  1  0  0  0  0
 21 22  2  0  0  0  0
 22 23  1  0  0  0  0
 22 24  1  0  0  0  0
 24 25  1  0  0  0  0
 25 15  2  0  0  0  0
 27 26  1  0  0  0  0
 27 32  1  0  0  0  0
 28 29  2  0  0  0  0
 29 30  2  0  0  0  0
 30 36  1  0  0  0  0
 31 30  1  0  0  0  0
 32 31  1  0  0  0  0
 33 28  1  0  0  0  0
 33 32  2  0  0  0  0
 34 35  1  0  0  0  0
 35 28  1  0  0  0  0
 36 37  1  0  0  0  0
M  END
>  <minimizedAffinity>
-9.21751595

$$$$

 OpenBabel12271914403D

 37 41  0  0  1  0  0  0  0  0999 V2000
  -17.4010  -26.9280  -13.3900 C   0  0  2  0  0  0  0  0  0  0  0  0
  -17.3870  -28.0870  -12.5480 O   0  0  0  0  0  0  0  0  0  0  0  0
  -18.4830  -28.6050  -11.9480 C   0  0  0  0  0  0  0  0  0  0  0  0
  -18.3750  -29.4300  -11.0840 O   0  0  0  0  0  0  0  0  0  0  0  0
  -19.7970  -28.1080  -12.4070 C   0  0  1  0  0  0  0  0  0  0  0  0
  -19.9760  -27.1930  -13.4070 C   0  0  0  0  0  0  0  0  0  0  0  0
  -21.0270  -26.7080  -13.8780 O   0  0  0  0  0  0  0  0  0  0  0  0
  -18.7100  -26.6450  -14.1070 C   0  0  0  0  0  0  0  0  0  0  0  0
  -16.2420  -27.1340  -14.4120 C   0  0  0  0  0  0  0  0  0  0  0  0
  -15.3460  -28.3170  -14.0610 C   0  0  0  0  0  0  0  0  0  0  0  0
  -13.9620  -27.7710  -13.7830 C   0  0  0  0  0  0  0  0  0  0  0  0
  -13.9170  -26.3880  -14.4080 C   0  0  0  0  0  0  0  0  0  0  0  0
  -15.3350  -25.8930  -14.4290 C   0  0  0  0  0  0  0  0  0  0  0  0
  -20.9700  -28.7350  -11.6770 C   0  0  0  0  0  0  0  0  0  0  0  0
  -21.6340  -27.9080  -10.5330 C   0  0  0  0  0  0  0  0  0  0  0  0
  -23.0360  -27.6920  -10.5060 N   0  0  0  0  0  0  0  0  0  0  0  0
  -23.1740  -26.9370   -9.3990 C   0  0  0  0  0  0  0  0  0  0  0  0
  -24.3180  -26.3920   -8.8380 N   0  0  0  0  0  0  0  0  0  0  0  0
  -24.2240  -25.6210   -7.7630 C   0  0  0  0  0  0  0  0  0  0  0  0
  -25.4380  -24.9960   -7.1280 C   0  0  0  0  0  0  0  0  0  0  0  0
  -22.8900  -25.3460   -7.1640 C   0  0  0  0  0  0  0  0  0  0  0  0
  -21.8090  -25.8950   -7.7360 C   0  0  0  0  0  0  0  0  0  0  0  0
  -20.4280  -25.6550   -7.1970 C   0  0  0  0  0  0  0  0  0  0  0  0
  -21.9390  -26.6930   -8.8550 N   0  0  0  0  0  0  0  0  0  0  0  0
  -20.9750  -27.2750   -9.6340 N   0  0  0  0  0  0  0  0  0  0  0  0
  -16.9610  -25.6670  -12.6010 C   0  0  0  0  0  0  0  0  0  0  0  0
  -17.5680  -25.5930  -11.2200 C   0  0  0  0  0  0  0  0  0  0  0  0
  -15.7730  -26.0640   -7.9970 C   0  0  0  0  0  0  0  0  0  0  0  0
  -14.4410  -25.9780   -8.3430 N   0  0  0  0  0  0  0  0  0  0  0  0
  -14.1520  -25.7680   -9.6490 C   0  0  0  0  0  0  0  0  0  0  0  0
  -15.1250  -25.6320  -10.5870 C   0  0  0  0  0  0  0  0  0  0  0  0
  -16.4880  -25.7390  -10.2370 C   0  0  0  0  0  0  0  0  0  0  0  0
  -16.7620  -25.9550   -8.8850 C   0  0  0  0  0  0  0  0  0  0  0  0
  -14.8970  -27.1330   -5.9570 C   0  0  0  0  0  0  0  0  0  0  0  0
  -16.0680  -26.3520   -6.5290 C   0  0  0  0  0  0  0  0  0  0  0  0
  -12.6860  -25.6470  -10.0290 C   0  0  0  0  0  0  0  0  0  0  0  0
  -12.5520  -25.0930  -11.4410 C   0  0  0  0  0  0  0  0  0  0  0  0
  1 26  1  1  0  0  0
  1  2  1  0  0  0  0
  2  3  1  0  0  0  0
  3  4  2  0  0  0  0
  5  3  1  0  0  0  0
  5 14  1  6  0  0  0
  6  5  1  0  0  0  0
  7  6  2  0  0  0  0
  8  6  1  0  0  0  0
  8  1  1  0  0  0  0
  9 10  1  0  0  0  0
  9  1  1  0  0  0  0
 10 11  1  0  0  0  0
 12 11  1  0  0  0  0
 13  9  1  0  0  0  0
 13 12  1  0  0  0  0
 14 15  1  0  0  0  0
 15 16  2  0  0  0  0
 15 25  2  0  0  0  0
 16 17  2  0  0  0  0
 17 24  1  0  0  0  0
 17 18  2  0  0  0  0
 18 19  2  0  0  0  0
 19 21  1  0  0  0  0
 19 20  1  0  0  0  0
 22 23  1  0  0  0  0
 22 21  2  0  0  0  0
 24 22  1  0  0  0  0
 25 24  1  0  0  0  0
 26 27  1  0  0  0  0
 27 32  1  0  0  0  0
 28 35  1  0  0  0  0
 29 28  2  0  0  0  0
 30 29  2  0  0  0  0
 31 32  1  0  0  0  0
 31 30  1  0  0  0  0
 32 33  2  0  0  0  0
 33 28  1  0  0  0  0
 35 34  1  0  0  0  0
 36 30  1  0  0  0  0
 37 36  1  0  0  0  0
M  END
>  <minimizedAffinity>
-9.21179199

$$$$

 OpenBabel12271914403D

 37 41  0  0  1  0  0  0  0  0999 V2000
  -15.9250  -27.0810  -12.4000 C   0  0  2  0  0  0  0  0  0  0  0  0
  -16.6570  -28.0750  -13.1280 O   0  0  0  0  0  0  0  0  0  0  0  0
  -17.9680  -27.9740  -13.4450 C   0  0  0  0  0  0  0  0  0  0  0  0
  -18.5740  -28.9260  -13.8520 O   0  0  0  0  0  0  0  0  0  0  0  0
  -18.6010  -26.6510  -13.2680 C   0  0  1  0  0  0  0  0  0  0  0  0
  -17.9490  -25.5270  -12.8390 C   0  0  0  0  0  0  0  0  0  0  0  0
  -18.3740  -24.3670  -12.6580 O   0  0  0  0  0  0  0  0  0  0  0  0
  -16.4400  -25.6580  -12.5210 C   0  0  0  0  0  0  0  0  0  0  0  0
  -14.4550  -27.1840  -12.9080 C   0  0  0  0  0  0  0  0  0  0  0  0
  -13.8690  -25.8330  -13.3030 C   0  0  0  0  0  0  0  0  0  0  0  0
  -13.5620  -25.8850  -14.7840 C   0  0  0  0  0  0  0  0  0  0  0  0
  -13.5170  -27.3570  -15.1560 C   0  0  0  0  0  0  0  0  0  0  0  0
  -14.3980  -28.0650  -14.1660 C   0  0  0  0  0  0  0  0  0  0  0  0
  -20.0720  -26.6280  -13.6400 C   0  0  0  0  0  0  0  0  0  0  0  0
  -21.1110  -26.6610  -12.4770 C   0  0  0  0  0  0  0  0  0  0  0  0
  -21.4920  -25.4720  -11.8030 N   0  0  0  0  0  0  0  0  0  0  0  0
  -22.3610  -25.9440  -10.8890 C   0  0  0  0  0  0  0  0  0  0  0  0
  -23.0760  -25.2630   -9.9160 N   0  0  0  0  0  0  0  0  0  0  0  0
  -23.8430  -25.9360   -9.0690 C   0  0  0  0  0  0  0  0  0  0  0  0
  -24.6260  -25.2400   -7.9860 C   0  0  0  0  0  0  0  0  0  0  0  0
  -23.9350  -27.4170   -9.1690 C   0  0  0  0  0  0  0  0  0  0  0  0
  -23.2300  -28.0360  -10.1270 C   0  0  0  0  0  0  0  0  0  0  0  0
  -23.2620  -29.5300  -10.2850 C   0  0  0  0  0  0  0  0  0  0  0  0
  -22.4390  -27.3090  -10.9930 N   0  0  0  0  0  0  0  0  0  0  0  0
  -21.5860  -27.7400  -11.9740 N   0  0  0  0  0  0  0  0  0  0  0  0
  -15.8130  -27.4650  -10.9020 C   0  0  0  0  0  0  0  0  0  0  0  0
  -15.6380  -26.2670   -9.9970 C   0  0  0  0  0  0  0  0  0  0  0  0
  -16.8680  -26.8640   -6.5390 C   0  0  0  0  0  0  0  0  0  0  0  0
  -18.2390  -26.7750   -6.6540 N   0  0  0  0  0  0  0  0  0  0  0  0
  -18.7420  -26.5130   -7.8830 C   0  0  0  0  0  0  0  0  0  0  0  0
  -17.9400  -26.3550   -8.9680 C   0  0  0  0  0  0  0  0  0  0  0  0
  -16.5360  -26.4260   -8.8480 C   0  0  0  0  0  0  0  0  0  0  0  0
  -16.0410  -26.6980   -7.5710 C   0  0  0  0  0  0  0  0  0  0  0  0
  -14.9050  -27.6320   -5.2600 C   0  0  0  0  0  0  0  0  0  0  0  0
  -16.3270  -27.1090   -5.1340 C   0  0  0  0  0  0  0  0  0  0  0  0
  -20.2540  -26.4400   -8.0180 C   0  0  0  0  0  0  0  0  0  0  0  0
  -20.8310  -25.4950   -6.9730 C   0  0  0  0  0  0  0  0  0  0  0  0
  1 26  1  1  0  0  0
  2  1  1  0  0  0  0
  3  5  1  0  0  0  0
  3  2  1  0  0  0  0
  4  3  2  0  0  0  0
  5 14  1  6  0  0  0
  5  6  1  0  0  0  0
  6  7  2  0  0  0  0
  6  8  1  0  0  0  0
  8  1  1  0  0  0  0
  9  1  1  0  0  0  0
 10  9  1  0  0  0  0
 11 10  1  0  0  0  0
 12 11  1  0  0  0  0
 12 13  1  0  0  0  0
 13  9  1  0  0  0  0
 14 15  1  0  0  0  0
 15 25  2  0  0  0  0
 15 16  2  0  0  0  0
 16 17  2  0  0  0  0
 17 18  2  0  0  0  0
 18 19  2  0  0  0  0
 19 20  1  0  0  0  0
 21 19  1  0  0  0  0
 22 21  2  0  0  0  0
 23 22  1  0  0  0  0
 24 17  1  0  0  0  0
 24 22  1  0  0  0  0
 25 24  1  0  0  0  0
 26 27  1  0  0  0  0
 27 32  1  0  0  0  0
 28 35  1  0  0  0  0
 29 28  2  0  0  0  0
 30 29  2  0  0  0  0
 31 32  1  0  0  0  0
 31 30  1  0  0  0  0
 32 33  2  0  0  0  0
 33 28  1  0  0  0  0
 34 35  1  0  0  0  0
 36 30  1  0  0  0  0
 36 37  1  0  0  0  0
M  END
>  <minimizedAffinity>
-9.01192951

$$$$

 OpenBabel12271914403D

 37 41  0  0  1  0  0  0  0  0999 V2000
  -15.8060  -26.6320   -9.5950 C   0  0  2  0  0  0  0  0  0  0  0  0
  -16.7040  -25.6980  -10.2070 O   0  0  0  0  0  0  0  0  0  0  0  0
  -17.7080  -26.0460  -11.0450 C   0  0  0  0  0  0  0  0  0  0  0  0
  -18.2760  -25.2150  -11.6960 O   0  0  0  0  0  0  0  0  0  0  0  0
  -18.0600  -27.4790  -11.1110 C   0  0  1  0  0  0  0  0  0  0  0  0
  -17.4660  -28.4620  -10.3670 C   0  0  0  0  0  0  0  0  0  0  0  0
  -17.6820  -29.6910  -10.3350 O   0  0  0  0  0  0  0  0  0  0  0  0
  -16.3490  -28.0350   -9.3860 C   0  0  0  0  0  0  0  0  0  0  0  0
  -15.3920  -25.9900   -8.2360 C   0  0  0  0  0  0  0  0  0  0  0  0
  -14.1980  -26.6850   -7.5910 C   0  0  0  0  0  0  0  0  0  0  0  0
  -14.6700  -27.2760   -6.2800 C   0  0  0  0  0  0  0  0  0  0  0  0
  -15.9590  -26.5540   -5.9280 C   0  0  0  0  0  0  0  0  0  0  0  0
  -16.5520  -26.0990   -7.2330 C   0  0  0  0  0  0  0  0  0  0  0  0
  -19.1900  -27.7820  -12.0780 C   0  0  0  0  0  0  0  0  0  0  0  0
  -20.5890  -28.1120  -11.4720 C   0  0  0  0  0  0  0  0  0  0  0  0
  -21.2710  -27.1750  -10.6540 N   0  0  0  0  0  0  0  0  0  0  0  0
  -22.3920  -27.8540  -10.3390 C   0  0  0  0  0  0  0  0  0  0  0  0
  -23.4640  -27.4700   -9.5490 N   0  0  0  0  0  0  0  0  0  0  0  0
  -24.4520  -28.3230   -9.3180 C   0  0  0  0  0  0  0  0  0  0  0  0
  -25.6290  -27.9560   -8.4540 C   0  0  0  0  0  0  0  0  0  0  0  0
  -24.4060  -29.6870   -9.9110 C   0  0  0  0  0  0  0  0  0  0  0  0
  -23.3530  -30.0160  -10.6720 C   0  0  0  0  0  0  0  0  0  0  0  0
  -23.2290  -31.3770  -11.2960 C   0  0  0  0  0  0  0  0  0  0  0  0
  -22.3390  -29.1070  -10.8940 N   0  0  0  0  0  0  0  0  0  0  0  0
  -21.1510  -29.2600  -11.5590 N   0  0  0  0  0  0  0  0  0  0  0  0
  -14.4690  -26.7060  -10.3770 C   0  0  0  0  0  0  0  0  0  0  0  0
  -14.2710  -25.5430  -11.3200 C   0  0  0  0  0  0  0  0  0  0  0  0
  -13.2900  -25.8720  -14.8920 C   0  0  0  0  0  0  0  0  0  0  0  0
  -13.8730  -27.0580  -15.2890 N   0  0  0  0  0  0  0  0  0  0  0  0
  -14.5840  -27.7390  -14.3600 C   0  0  0  0  0  0  0  0  0  0  0  0
  -14.7370  -27.2790  -13.0920 C   0  0  0  0  0  0  0  0  0  0  0  0
  -14.1250  -26.0760  -12.6790 C   0  0  0  0  0  0  0  0  0  0  0  0
  -13.3970  -25.3900  -13.6540 C   0  0  0  0  0  0  0  0  0  0  0  0
  -11.5570  -24.1530  -15.2290 C   0  0  0  0  0  0  0  0  0  0  0  0
  -12.4530  -25.1520  -15.9430 C   0  0  0  0  0  0  0  0  0  0  0  0
  -15.2490  -29.0330  -14.8010 C   0  0  0  0  0  0  0  0  0  0  0  0
  -16.5760  -29.2160  -14.0770 C   0  0  0  0  0  0  0  0  0  0  0  0
  1 26  1  6  0  0  0
  1  8  1  0  0  0  0
  1  9  1  0  0  0  0
  2  1  1  0  0  0  0
  3  2  1  0  0  0  0
  4  3  2  0  0  0  0
  5 14  1  1  0  0  0
  5  3  1  0  0  0  0
  5  6  1  0  0  0  0
  6  7  2  0  0  0  0
  6  8  1  0  0  0  0
  9 10  1  0  0  0  0
  9 13  1  0  0  0  0
 10 11  1  0  0  0  0
 11 12  1  0  0  0  0
 13 12  1  0  0  0  0
 14 15  1  0  0  0  0
 15 16  2  0  0  0  0
 16 17  2  0  0  0  0
 17 18  2  0  0  0  0
 18 19  2  0  0  0  0
 19 20  1  0  0  0  0
 21 19  1  0  0  0  0
 22 21  2  0  0  0  0
 23 22  1  0  0  0  0
 24 22  1  0  0  0  0
 24 17  1  0  0  0  0
 25 15  2  0  0  0  0
 25 24  1  0  0  0  0
 27 26  1  0  0  0  0
 28 33  1  0  0  0  0
 29 28  2  0  0  0  0
 29 30  2  0  0  0  0
 30 31  1  0  0  0  0
 31 32  1  0  0  0  0
 32 27  1  0  0  0  0
 33 32  2  0  0  0  0
 35 34  1  0  0  0  0
 35 28  1  0  0  0  0
 36 30  1  0  0  0  0
 36 37  1  0  0  0  0
M  END
>  <minimizedAffinity>
-8.98215389

$$$$
