
 OpenBabel12271914433D

 27 29  0  0  1  0  0  0  0  0999 V2000
  -25.1320  -24.2010   -3.7200 C   0  0  1  0  0  0  0  0  0  0  0  0
  -24.7350  -25.4050   -3.0440 N   0  0  0  0  0  0  0  0  0  0  0  0
  -23.7880  -25.3440   -2.5370 H   0  0  0  0  0  0  0  0  0  0  0  0
  -24.3760  -26.3860   -4.1470 O   0  0  0  0  0  0  0  0  0  0  0  0
  -25.0180  -25.8040   -5.3350 C   0  0  2  0  0  0  0  0  0  0  0  0
  -25.8260  -26.8430   -6.1210 C   0  0  1  0  0  0  0  0  0  0  0  0
  -24.9450  -27.6560   -7.0710 C   0  0  2  0  0  0  0  0  0  0  0  0
  -24.1760  -26.6810   -7.9290 C   0  0  1  0  0  0  0  0  0  0  0  0
  -23.2630  -25.8810   -7.0170 C   0  0  2  0  0  0  0  0  0  0  0  0
  -24.0690  -25.0820   -6.1550 O   0  0  0  0  0  0  0  0  0  0  0  0
  -25.9510  -24.7410   -4.8600 C   0  0  0  0  0  0  0  0  0  0  0  0
  -25.9840  -23.4230   -2.7640 C   0  0  0  0  0  0  0  0  0  0  0  0
  -25.6460  -22.1110   -2.3740 C   0  0  0  0  0  0  0  0  0  0  0  0
  -26.4270  -21.3740   -1.4560 C   0  0  0  0  0  0  0  0  0  0  0  0
  -27.5530  -21.9710   -0.9350 C   0  0  0  0  0  0  0  0  0  0  0  0
  -28.4130  -21.1830    0.0400 C   0  0  0  0  0  0  0  0  0  0  0  0
  -27.9250  -23.2510   -1.3090 C   0  0  0  0  0  0  0  0  0  0  0  0
  -27.1430  -23.9700   -2.2200 C   0  0  0  0  0  0  0  0  0  0  0  0
  -25.8190  -28.4940   -7.9070 O   0  0  0  0  0  0  0  0  0  0  0  0
  -26.5510  -27.9210   -8.2090 H   0  0  0  0  0  0  0  0  0  0  0  0
  -26.5040  -27.7190   -5.1670 O   0  0  0  0  0  0  0  0  0  0  0  0
  -27.3710  -27.9940   -5.5880 H   0  0  0  0  0  0  0  0  0  0  0  0
  -23.4300  -27.3400   -8.9820 O   0  0  0  0  0  0  0  0  0  0  0  0
  -22.4940  -27.4190   -8.7210 H   0  0  0  0  0  0  0  0  0  0  0  0
  -22.4700  -24.8570   -7.8020 C   0  0  0  0  0  0  0  0  0  0  0  0
  -23.3810  -24.2520   -8.7800 O   0  0  0  0  0  0  0  0  0  0  0  0
  -22.8850  -24.2330   -9.6300 H   0  0  0  0  0  0  0  0  0  0  0  0
  1  2  1  0  0  0  0
  1 12  1  1  0  0  0
  2  3  1  0  0  0  0
  4  2  1  0  0  0  0
  5 11  1  1  0  0  0
  5  4  1  0  0  0  0
  6  5  1  1  0  0  0
  6 21  1  0  0  0  0
  7 19  1  6  0  0  0
  7  6  1  0  0  0  0
  8 23  1  6  0  0  0
  8  7  1  0  0  0  0
  8  9  1  0  0  0  0
  9 25  1  6  0  0  0
  9 10  1  0  0  0  0
 10  5  1  0  0  0  0
 11  1  1  0  0  0  0
 12 13  2  0  0  0  0
 12 18  1  0  0  0  0
 13 14  1  0  0  0  0
 14 15  2  0  0  0  0
 15 16  1  0  0  0  0
 17 15  1  0  0  0  0
 18 17  2  0  0  0  0
 20 19  1  0  0  0  0
 22 21  1  0  0  0  0
 23 24  1  0  0  0  0
 26 25  1  0  0  0  0
 27 26  1  0  0  0  0
M  END
>  <minimizedAffinity>
-7.90440559

$$$$

 OpenBabel12271914433D

 27 29  0  0  1  0  0  0  0  0999 V2000
  -16.4950  -26.4110   -9.7250 C   0  0  1  0  0  0  0  0  0  0  0  0
  -16.4310  -27.8280   -9.4990 N   0  0  0  0  0  0  0  0  0  0  0  0
  -17.0590  -28.4150  -10.1470 H   0  0  0  0  0  0  0  0  0  0  0  0
  -17.1390  -28.0560   -8.1740 O   0  0  0  0  0  0  0  0  0  0  0  0
  -17.1470  -26.7190   -7.5640 C   0  0  2  0  0  0  0  0  0  0  0  0
  -16.6700  -26.7470   -6.1080 C   0  0  1  0  0  0  0  0  0  0  0  0
  -17.7930  -27.1270   -5.1420 C   0  0  2  0  0  0  0  0  0  0  0  0
  -18.9550  -26.1990   -5.4030 C   0  0  1  0  0  0  0  0  0  0  0  0
  -19.4470  -26.4570   -6.8150 C   0  0  2  0  0  0  0  0  0  0  0  0
  -18.4270  -26.0640   -7.7310 O   0  0  0  0  0  0  0  0  0  0  0  0
  -16.2120  -25.8650   -8.3520 C   0  0  0  0  0  0  0  0  0  0  0  0
  -15.3910  -26.0710  -10.6800 C   0  0  0  0  0  0  0  0  0  0  0  0
  -15.5750  -26.1400  -12.0750 C   0  0  0  0  0  0  0  0  0  0  0  0
  -14.5370  -25.8440  -12.9870 C   0  0  0  0  0  0  0  0  0  0  0  0
  -13.3110  -25.4760  -12.4800 C   0  0  0  0  0  0  0  0  0  0  0  0
  -12.1910  -25.1360  -13.4490 C   0  0  0  0  0  0  0  0  0  0  0  0
  -13.1000  -25.3800  -11.1140 C   0  0  0  0  0  0  0  0  0  0  0  0
  -14.1360  -25.6750  -10.2220 C   0  0  0  0  0  0  0  0  0  0  0  0
  -17.2990  -26.9530   -3.7680 O   0  0  0  0  0  0  0  0  0  0  0  0
  -16.8350  -26.0930   -3.7440 H   0  0  0  0  0  0  0  0  0  0  0  0
  -15.5570  -27.6890   -6.0050 O   0  0  0  0  0  0  0  0  0  0  0  0
  -14.9410  -27.3390   -5.2960 H   0  0  0  0  0  0  0  0  0  0  0  0
  -20.0180  -26.3580   -4.4320 O   0  0  0  0  0  0  0  0  0  0  0  0
  -20.7310  -26.9040   -4.8120 H   0  0  0  0  0  0  0  0  0  0  0  0
  -20.6020  -25.5420   -7.1660 C   0  0  0  0  0  0  0  0  0  0  0  0
  -21.8140  -26.1200   -6.5760 O   0  0  0  0  0  0  0  0  0  0  0  0
  -22.5010  -26.0750   -7.2800 H   0  0  0  0  0  0  0  0  0  0  0  0
  1 12  1  6  0  0  0
  1  2  1  0  0  0  0
  1 11  1  0  0  0  0
  2  4  1  0  0  0  0
  3  2  1  0  0  0  0
  4  5  1  0  0  0  0
  5 11  1  6  0  0  0
  6  5  1  6  0  0  0
  6 21  1  0  0  0  0
  6  7  1  0  0  0  0
  7 19  1  1  0  0  0
  8  7  1  0  0  0  0
  8 23  1  1  0  0  0
  9 25  1  6  0  0  0
  9  8  1  0  0  0  0
 10  5  1  0  0  0  0
 10  9  1  0  0  0  0
 12 18  1  0  0  0  0
 13 12  2  0  0  0  0
 14 15  2  0  0  0  0
 14 13  1  0  0  0  0
 15 17  1  0  0  0  0
 16 15  1  0  0  0  0
 17 18  2  0  0  0  0
 19 20  1  0  0  0  0
 21 22  1  0  0  0  0
 24 23  1  0  0  0  0
 25 26  1  0  0  0  0
 27 26  1  0  0  0  0
M  END
>  <minimizedAffinity>
-7.76289415

$$$$

 OpenBabel12271914433D

 27 29  0  0  1  0  0  0  0  0999 V2000
  -15.8870  -26.2790   -7.8470 C   0  0  1  0  0  0  0  0  0  0  0  0
  -15.4770  -24.9070   -7.7410 N   0  0  0  0  0  0  0  0  0  0  0  0
  -16.2860  -24.2030   -7.6420 H   0  0  0  0  0  0  0  0  0  0  0  0
  -14.9740  -24.5300   -9.1240 O   0  0  0  0  0  0  0  0  0  0  0  0
  -14.7340  -25.8340   -9.7600 C   0  0  2  0  0  0  0  0  0  0  0  0
  -13.3580  -25.9020  -10.4330 C   0  0  1  0  0  0  0  0  0  0  0  0
  -13.3730  -25.2900  -11.8350 C   0  0  2  0  0  0  0  0  0  0  0  0
  -14.4840  -25.9530  -12.6110 C   0  0  1  0  0  0  0  0  0  0  0  0
  -15.7970  -25.6020  -11.9360 C   0  0  2  0  0  0  0  0  0  0  0  0
  -15.8180  -26.2050  -10.6430 O   0  0  0  0  0  0  0  0  0  0  0  0
  -14.7870  -26.8680   -8.6870 C   0  0  0  0  0  0  0  0  0  0  0  0
  -15.8710  -26.8480   -6.4600 C   0  0  0  0  0  0  0  0  0  0  0  0
  -14.7720  -27.5870   -5.9780 C   0  0  0  0  0  0  0  0  0  0  0  0
  -14.7530  -28.1480   -4.6810 C   0  0  0  0  0  0  0  0  0  0  0  0
  -15.8520  -27.9560   -3.8730 C   0  0  0  0  0  0  0  0  0  0  0  0
  -15.8380  -28.5380   -2.4700 C   0  0  0  0  0  0  0  0  0  0  0  0
  -16.9420  -27.2200   -4.3080 C   0  0  0  0  0  0  0  0  0  0  0  0
  -16.9470  -26.6680   -5.5940 C   0  0  0  0  0  0  0  0  0  0  0  0
  -12.0740  -25.5590  -12.4700 O   0  0  0  0  0  0  0  0  0  0  0  0
  -11.8650  -26.4970  -12.2930 H   0  0  0  0  0  0  0  0  0  0  0  0
  -12.3920  -25.2140   -9.5780 O   0  0  0  0  0  0  0  0  0  0  0  0
  -11.5130  -25.6840   -9.6930 H   0  0  0  0  0  0  0  0  0  0  0  0
  -14.4870  -25.5700  -14.0090 O   0  0  0  0  0  0  0  0  0  0  0  0
  -15.1670  -24.8890  -14.1610 H   0  0  0  0  0  0  0  0  0  0  0  0
  -16.9670  -26.2550  -12.6440 C   0  0  0  0  0  0  0  0  0  0  0  0
  -16.5020  -27.5460  -13.1600 O   0  0  0  0  0  0  0  0  0  0  0  0
  -16.8360  -27.6000  -14.0840 H   0  0  0  0  0  0  0  0  0  0  0  0
  1  2  1  0  0  0  0
  1 12  1  1  0  0  0
  2  3  1  0  0  0  0
  4  2  1  0  0  0  0
  5  4  1  0  0  0  0
  5 11  1  1  0  0  0
  6  5  1  1  0  0  0
  6 21  1  0  0  0  0
  7 19  1  6  0  0  0
  7  6  1  0  0  0  0
  8 23  1  6  0  0  0
  8  9  1  0  0  0  0
  8  7  1  0  0  0  0
  9 25  1  6  0  0  0
  9 10  1  0  0  0  0
 10  5  1  0  0  0  0
 11  1  1  0  0  0  0
 12 13  2  0  0  0  0
 12 18  1  0  0  0  0
 13 14  1  0  0  0  0
 14 15  2  0  0  0  0
 15 16  1  0  0  0  0
 17 15  1  0  0  0  0
 18 17  2  0  0  0  0
 19 20  1  0  0  0  0
 22 21  1  0  0  0  0
 24 23  1  0  0  0  0
 26 25  1  0  0  0  0
 27 26  1  0  0  0  0
M  END
>  <minimizedAffinity>
-7.73042297

$$$$

 OpenBabel12271914433D

 27 29  0  0  1  0  0  0  0  0999 V2000
  -16.4640  -26.4070   -9.7750 C   0  0  1  0  0  0  0  0  0  0  0  0
  -16.4390  -27.8280   -9.5680 N   0  0  0  0  0  0  0  0  0  0  0  0
  -17.0950  -28.3870  -10.2140 H   0  0  0  0  0  0  0  0  0  0  0  0
  -17.1330  -28.0530   -8.2360 O   0  0  0  0  0  0  0  0  0  0  0  0
  -17.0920  -26.7240   -7.6080 C   0  0  2  0  0  0  0  0  0  0  0  0
  -16.5930  -26.7850   -6.1600 C   0  0  1  0  0  0  0  0  0  0  0  0
  -17.7120  -27.1450   -5.1820 C   0  0  2  0  0  0  0  0  0  0  0  0
  -18.8490  -26.1800   -5.4120 C   0  0  1  0  0  0  0  0  0  0  0  0
  -19.3710  -26.4040   -6.8190 C   0  0  2  0  0  0  0  0  0  0  0  0
  -18.3540  -26.0290   -7.7460 O   0  0  0  0  0  0  0  0  0  0  0  0
  -16.1440  -25.8880   -8.4000 C   0  0  0  0  0  0  0  0  0  0  0  0
  -15.3650  -26.0860  -10.7430 C   0  0  0  0  0  0  0  0  0  0  0  0
  -14.0850  -25.6940  -10.3020 C   0  0  0  0  0  0  0  0  0  0  0  0
  -13.0470  -25.3680  -11.2030 C   0  0  0  0  0  0  0  0  0  0  0  0
  -13.3100  -25.4410  -12.5530 C   0  0  0  0  0  0  0  0  0  0  0  0
  -12.1970  -25.1110  -13.5340 C   0  0  0  0  0  0  0  0  0  0  0  0
  -14.5510  -25.8400  -13.0210 C   0  0  0  0  0  0  0  0  0  0  0  0
  -15.5700  -26.1620  -12.1180 C   0  0  0  0  0  0  0  0  0  0  0  0
  -17.1920  -27.0050   -3.8130 O   0  0  0  0  0  0  0  0  0  0  0  0
  -16.7020  -26.1590   -3.7850 H   0  0  0  0  0  0  0  0  0  0  0  0
  -15.5080  -27.7620   -6.0880 O   0  0  0  0  0  0  0  0  0  0  0  0
  -14.8710  -27.4400   -5.3830 H   0  0  0  0  0  0  0  0  0  0  0  0
  -19.9020  -26.3200   -4.4260 O   0  0  0  0  0  0  0  0  0  0  0  0
  -20.6360  -26.8390   -4.8020 H   0  0  0  0  0  0  0  0  0  0  0  0
  -20.5040  -25.4500   -7.1400 C   0  0  0  0  0  0  0  0  0  0  0  0
  -21.7070  -25.9590   -6.4740 O   0  0  0  0  0  0  0  0  0  0  0  0
  -22.4260  -25.9050   -7.1440 H   0  0  0  0  0  0  0  0  0  0  0  0
  1 12  1  6  0  0  0
  1  2  1  0  0  0  0
  1 11  1  0  0  0  0
  2  4  1  0  0  0  0
  3  2  1  0  0  0  0
  4  5  1  0  0  0  0
  5 11  1  6  0  0  0
  6  5  1  6  0  0  0
  6 21  1  0  0  0  0
  6  7  1  0  0  0  0
  7 19  1  1  0  0  0
  8  7  1  0  0  0  0
  8 23  1  1  0  0  0
  9 25  1  6  0  0  0
  9  8  1  0  0  0  0
 10  5  1  0  0  0  0
 10  9  1  0  0  0  0
 12 13  1  0  0  0  0
 14 13  2  0  0  0  0
 15 14  1  0  0  0  0
 16 15  1  0  0  0  0
 17 15  2  0  0  0  0
 17 18  1  0  0  0  0
 18 12  2  0  0  0  0
 19 20  1  0  0  0  0
 21 22  1  0  0  0  0
 24 23  1  0  0  0  0
 25 26  1  0  0  0  0
 27 26  1  0  0  0  0
M  END
>  <minimizedAffinity>
-7.73004103

$$$$

 OpenBabel12271914433D

 27 29  0  0  1  0  0  0  0  0999 V2000
  -17.9300  -26.1430   -8.3490 C   0  0  1  0  0  0  0  0  0  0  0  0
  -17.0810  -25.7140   -9.4250 N   0  0  0  0  0  0  0  0  0  0  0  0
  -16.8190  -24.6700   -9.4020 H   0  0  0  0  0  0  0  0  0  0  0  0
  -17.9620  -25.7310  -10.6630 O   0  0  0  0  0  0  0  0  0  0  0  0
  -19.0910  -26.5820  -10.2590 C   0  0  2  0  0  0  0  0  0  0  0  0
  -19.4090  -27.6540  -11.3080 C   0  0  1  0  0  0  0  0  0  0  0  0
  -20.2970  -27.1140  -12.4300 C   0  0  2  0  0  0  0  0  0  0  0  0
  -21.5100  -26.4840  -11.7900 C   0  0  1  0  0  0  0  0  0  0  0  0
  -21.0380  -25.3030  -10.9610 C   0  0  2  0  0  0  0  0  0  0  0  0
  -20.2450  -25.7940   -9.8830 O   0  0  0  0  0  0  0  0  0  0  0  0
  -18.7020  -27.2630   -8.9910 C   0  0  0  0  0  0  0  0  0  0  0  0
  -17.0330  -26.6560   -7.2630 C   0  0  0  0  0  0  0  0  0  0  0  0
  -15.7500  -27.1660   -7.5460 C   0  0  0  0  0  0  0  0  0  0  0  0
  -14.9020  -27.6730   -6.5360 C   0  0  0  0  0  0  0  0  0  0  0  0
  -15.3600  -27.6630   -5.2370 C   0  0  0  0  0  0  0  0  0  0  0  0
  -14.4520  -28.1890   -4.1380 C   0  0  0  0  0  0  0  0  0  0  0  0
  -16.6090  -27.1530   -4.9210 C   0  0  0  0  0  0  0  0  0  0  0  0
  -17.4370  -26.6520   -5.9310 C   0  0  0  0  0  0  0  0  0  0  0  0
  -20.6970  -28.2420  -13.2850 O   0  0  0  0  0  0  0  0  0  0  0  0
  -20.9660  -28.9660  -12.6850 H   0  0  0  0  0  0  0  0  0  0  0  0
  -18.1470  -28.1620  -11.8450 O   0  0  0  0  0  0  0  0  0  0  0  0
  -18.2940  -29.1290  -12.0690 H   0  0  0  0  0  0  0  0  0  0  0  0
  -22.5040  -26.0840  -12.7650 O   0  0  0  0  0  0  0  0  0  0  0  0
  -22.4390  -25.1260  -12.9270 H   0  0  0  0  0  0  0  0  0  0  0  0
  -22.1990  -24.6290  -10.2620 C   0  0  0  0  0  0  0  0  0  0  0  0
  -23.3080  -25.5870  -10.2290 O   0  0  0  0  0  0  0  0  0  0  0  0
  -24.1070  -25.0810  -10.5000 H   0  0  0  0  0  0  0  0  0  0  0  0
  1 12  1  1  0  0  0
  2  3  1  0  0  0  0
  2  1  1  0  0  0  0
  4  5  1  0  0  0  0
  4  2  1  0  0  0  0
  5 10  1  0  0  0  0
  5 11  1  1  0  0  0
  6  5  1  1  0  0  0
  7 19  1  6  0  0  0
  7  8  1  0  0  0  0
  7  6  1  0  0  0  0
  8 23  1  6  0  0  0
  8  9  1  0  0  0  0
  9 25  1  1  0  0  0
  9 10  1  0  0  0  0
 11  1  1  0  0  0  0
 12 18  1  0  0  0  0
 13 12  2  0  0  0  0
 13 14  1  0  0  0  0
 14 15  2  0  0  0  0
 15 17  1  0  0  0  0
 15 16  1  0  0  0  0
 18 17  2  0  0  0  0
 19 20  1  0  0  0  0
 21  6  1  0  0  0  0
 22 21  1  0  0  0  0
 24 23  1  0  0  0  0
 25 26  1  0  0  0  0
 27 26  1  0  0  0  0
M  END
>  <minimizedAffinity>
-7.5532341

$$$$

 OpenBabel12271914433D

 27 29  0  0  1  0  0  0  0  0999 V2000
  -16.4380  -27.2670   -9.4410 C   0  0  1  0  0  0  0  0  0  0  0  0
  -16.6680  -25.8500   -9.4710 N   0  0  0  0  0  0  0  0  0  0  0  0
  -15.7750  -25.2520   -9.5400 H   0  0  0  0  0  0  0  0  0  0  0  0
  -17.1160  -25.4850   -8.0660 O   0  0  0  0  0  0  0  0  0  0  0  0
  -17.5220  -26.7790   -7.4980 C   0  0  2  0  0  0  0  0  0  0  0  0
  -18.8940  -26.7060   -6.8180 C   0  0  1  0  0  0  0  0  0  0  0  0
  -18.7980  -26.1760   -5.3870 C   0  0  2  0  0  0  0  0  0  0  0  0
  -17.7810  -27.0180   -4.6550 C   0  0  1  0  0  0  0  0  0  0  0  0
  -16.4350  -26.8030   -5.3210 C   0  0  2  0  0  0  0  0  0  0  0  0
  -16.4930  -27.3330   -6.6440 O   0  0  0  0  0  0  0  0  0  0  0  0
  -17.6040  -27.7530   -8.6240 C   0  0  0  0  0  0  0  0  0  0  0  0
  -16.5280  -27.7550  -10.8560 C   0  0  0  0  0  0  0  0  0  0  0  0
  -17.4170  -28.7840  -11.2260 C   0  0  0  0  0  0  0  0  0  0  0  0
  -17.4970  -29.2680  -12.5510 C   0  0  0  0  0  0  0  0  0  0  0  0
  -16.6730  -28.7060  -13.5000 C   0  0  0  0  0  0  0  0  0  0  0  0
  -16.7610  -29.2050  -14.9330 C   0  0  0  0  0  0  0  0  0  0  0  0
  -15.8000  -27.6810  -13.1750 C   0  0  0  0  0  0  0  0  0  0  0  0
  -15.7310  -27.2090  -11.8590 C   0  0  0  0  0  0  0  0  0  0  0  0
  -20.1210  -26.3090   -4.7560 O   0  0  0  0  0  0  0  0  0  0  0  0
  -20.4490  -27.2020   -4.9800 H   0  0  0  0  0  0  0  0  0  0  0  0
  -19.7650  -25.8550   -7.6280 O   0  0  0  0  0  0  0  0  0  0  0  0
  -20.6960  -26.2130   -7.5310 H   0  0  0  0  0  0  0  0  0  0  0  0
  -17.7270  -26.7130   -3.2390 O   0  0  0  0  0  0  0  0  0  0  0  0
  -16.9660  -26.1330   -3.0570 H   0  0  0  0  0  0  0  0  0  0  0  0
  -15.3580  -27.6370   -4.6580 C   0  0  0  0  0  0  0  0  0  0  0  0
  -16.0240  -28.5490   -3.7230 O   0  0  0  0  0  0  0  0  0  0  0  0
  -15.5010  -28.5060   -2.8910 H   0  0  0  0  0  0  0  0  0  0  0  0
  1 12  1  6  0  0  0
  1 11  1  0  0  0  0
  2  1  1  0  0  0  0
  2  4  1  0  0  0  0
  3  2  1  0  0  0  0
  4  5  1  0  0  0  0
  5 11  1  6  0  0  0
  5 10  1  0  0  0  0
  6  5  1  6  0  0  0
  6  7  1  0  0  0  0
  7 19  1  1  0  0  0
  7  8  1  0  0  0  0
  8 23  1  1  0  0  0
  9 25  1  1  0  0  0
  9  8  1  0  0  0  0
 10  9  1  0  0  0  0
 13 12  1  0  0  0  0
 14 13  2  0  0  0  0
 15 17  2  0  0  0  0
 15 14  1  0  0  0  0
 16 15  1  0  0  0  0
 17 18  1  0  0  0  0
 18 12  2  0  0  0  0
 20 19  1  0  0  0  0
 21 22  1  0  0  0  0
 21  6  1  0  0  0  0
 23 24  1  0  0  0  0
 25 26  1  0  0  0  0
 26 27  1  0  0  0  0
M  END
>  <minimizedAffinity>
-7.51871729

$$$$

 OpenBabel12271914433D

 27 29  0  0  1  0  0  0  0  0999 V2000
  -15.3790  -26.1550   -8.9800 C   0  0  1  0  0  0  0  0  0  0  0  0
  -15.4310  -24.8060   -8.4910 N   0  0  0  0  0  0  0  0  0  0  0  0
  -14.4700  -24.3670   -8.2810 H   0  0  0  0  0  0  0  0  0  0  0  0
  -15.9820  -24.9110   -7.0790 O   0  0  0  0  0  0  0  0  0  0  0  0
  -16.6010  -26.2440   -7.0590 C   0  0  2  0  0  0  0  0  0  0  0  0
  -18.0200  -26.2130   -6.4790 C   0  0  1  0  0  0  0  0  0  0  0  0
  -18.0170  -26.2590   -4.9510 C   0  0  2  0  0  0  0  0  0  0  0  0
  -17.1950  -27.4530   -4.5300 C   0  0  1  0  0  0  0  0  0  0  0  0
  -15.7670  -27.2190   -4.9920 C   0  0  2  0  0  0  0  0  0  0  0  0
  -15.7460  -27.2200   -6.4170 O   0  0  0  0  0  0  0  0  0  0  0  0
  -16.6770  -26.7200   -8.4700 C   0  0  0  0  0  0  0  0  0  0  0  0
  -15.3730  -26.0780  -10.4770 C   0  0  0  0  0  0  0  0  0  0  0  0
  -16.5170  -25.6840  -11.1990 C   0  0  0  0  0  0  0  0  0  0  0  0
  -16.5320  -25.6270  -12.6110 C   0  0  0  0  0  0  0  0  0  0  0  0
  -15.3840  -25.9720  -13.2880 C   0  0  0  0  0  0  0  0  0  0  0  0
  -15.3810  -25.8990  -14.8060 C   0  0  0  0  0  0  0  0  0  0  0  0
  -14.2370  -26.3480  -12.6100 C   0  0  0  0  0  0  0  0  0  0  0  0
  -14.2340  -26.3980  -11.2110 C   0  0  0  0  0  0  0  0  0  0  0  0
  -19.4060  -26.4080   -4.4910 O   0  0  0  0  0  0  0  0  0  0  0  0
  -19.8140  -27.0980   -5.0510 H   0  0  0  0  0  0  0  0  0  0  0  0
  -18.6880  -25.0050   -6.9610 O   0  0  0  0  0  0  0  0  0  0  0  0
  -19.6600  -25.2270   -7.0570 H   0  0  0  0  0  0  0  0  0  0  0  0
  -17.2590  -27.6930   -3.1030 O   0  0  0  0  0  0  0  0  0  0  0  0
  -16.4570  -27.3420   -2.6750 H   0  0  0  0  0  0  0  0  0  0  0  0
  -14.8790  -28.3910   -4.6290 C   0  0  0  0  0  0  0  0  0  0  0  0
  -14.6500  -28.3370   -3.1810 O   0  0  0  0  0  0  0  0  0  0  0  0
  -13.6860  -28.4880   -3.0570 H   0  0  0  0  0  0  0  0  0  0  0  0
  1 12  1  6  0  0  0
  1  2  1  0  0  0  0
  1 11  1  0  0  0  0
  2  3  1  0  0  0  0
  2  4  1  0  0  0  0
  4  5  1  0  0  0  0
  5 11  1  6  0  0  0
  5 10  1  0  0  0  0
  6  5  1  1  0  0  0
  6  7  1  0  0  0  0
  7  8  1  0  0  0  0
  7 19  1  6  0  0  0
  8 23  1  1  0  0  0
  9 25  1  1  0  0  0
  9  8  1  0  0  0  0
 10  9  1  0  0  0  0
 13 12  2  0  0  0  0
 14 13  1  0  0  0  0
 15 14  2  0  0  0  0
 15 17  1  0  0  0  0
 16 15  1  0  0  0  0
 17 18  2  0  0  0  0
 18 12  1  0  0  0  0
 20 19  1  0  0  0  0
 21  6  1  0  0  0  0
 22 21  1  0  0  0  0
 23 24  1  0  0  0  0
 25 26  1  0  0  0  0
 26 27  1  0  0  0  0
M  END
>  <minimizedAffinity>
-7.50416851

$$$$

 OpenBabel12271914433D

 27 29  0  0  1  0  0  0  0  0999 V2000
  -16.5460  -27.2730  -10.1360 C   0  0  1  0  0  0  0  0  0  0  0  0
  -16.8360  -25.8790  -10.3230 N   0  0  0  0  0  0  0  0  0  0  0  0
  -15.9690  -25.2450  -10.3870 H   0  0  0  0  0  0  0  0  0  0  0  0
  -17.4070  -25.4060   -8.9970 O   0  0  0  0  0  0  0  0  0  0  0  0
  -17.7960  -26.6590   -8.3330 C   0  0  2  0  0  0  0  0  0  0  0  0
  -19.2180  -26.5930   -7.7640 C   0  0  1  0  0  0  0  0  0  0  0  0
  -19.2560  -25.9240   -6.3890 C   0  0  2  0  0  0  0  0  0  0  0  0
  -18.2600  -26.6380   -5.5070 C   0  0  1  0  0  0  0  0  0  0  0  0
  -16.8780  -26.4170   -6.0930 C   0  0  2  0  0  0  0  0  0  0  0  0
  -16.8110  -27.0740   -7.3570 O   0  0  0  0  0  0  0  0  0  0  0  0
  -17.7480  -27.7390   -9.3610 C   0  0  0  0  0  0  0  0  0  0  0  0
  -16.5060  -27.8980  -11.4980 C   0  0  0  0  0  0  0  0  0  0  0  0
  -15.6180  -27.4420  -12.4930 C   0  0  0  0  0  0  0  0  0  0  0  0
  -15.5850  -28.0060  -13.7880 C   0  0  0  0  0  0  0  0  0  0  0  0
  -16.4550  -29.0360  -14.0710 C   0  0  0  0  0  0  0  0  0  0  0  0
  -16.4170  -29.6640  -15.4540 C   0  0  0  0  0  0  0  0  0  0  0  0
  -17.3280  -29.5210  -13.1120 C   0  0  0  0  0  0  0  0  0  0  0  0
  -17.3500  -28.9540  -11.8330 C   0  0  0  0  0  0  0  0  0  0  0  0
  -20.6150  -26.0660   -5.8450 O   0  0  0  0  0  0  0  0  0  0  0  0
  -20.8850  -26.9920   -6.0020 H   0  0  0  0  0  0  0  0  0  0  0  0
  -20.0620  -25.8700   -8.7150 O   0  0  0  0  0  0  0  0  0  0  0  0
  -20.9810  -26.2660   -8.6500 H   0  0  0  0  0  0  0  0  0  0  0  0
  -18.3290  -26.1960   -4.1280 O   0  0  0  0  0  0  0  0  0  0  0  0
  -17.6100  -25.5630   -3.9500 H   0  0  0  0  0  0  0  0  0  0  0  0
  -15.8190  -27.1270   -5.2750 C   0  0  0  0  0  0  0  0  0  0  0  0
  -14.6950  -27.4180   -6.1700 O   0  0  0  0  0  0  0  0  0  0  0  0
  -14.4420  -28.3510   -5.9870 H   0  0  0  0  0  0  0  0  0  0  0  0
  1 12  1  6  0  0  0
  1 11  1  0  0  0  0
  2  1  1  0  0  0  0
  2  4  1  0  0  0  0
  3  2  1  0  0  0  0
  4  5  1  0  0  0  0
  5 11  1  6  0  0  0
  5 10  1  0  0  0  0
  6  5  1  6  0  0  0
  6  7  1  0  0  0  0
  7 19  1  1  0  0  0
  7  8  1  0  0  0  0
  8 23  1  1  0  0  0
  9  8  1  0  0  0  0
  9 25  1  1  0  0  0
 10  9  1  0  0  0  0
 13 12  2  0  0  0  0
 14 13  1  0  0  0  0
 15 14  2  0  0  0  0
 15 17  1  0  0  0  0
 16 15  1  0  0  0  0
 17 18  2  0  0  0  0
 18 12  1  0  0  0  0
 20 19  1  0  0  0  0
 21 22  1  0  0  0  0
 21  6  1  0  0  0  0
 23 24  1  0  0  0  0
 26 27  1  0  0  0  0
 26 25  1  0  0  0  0
M  END
>  <minimizedAffinity>
-7.31897354

$$$$

 OpenBabel12271914433D

 27 29  0  0  1  0  0  0  0  0999 V2000
  -15.8380  -26.1140   -9.4710 C   0  0  1  0  0  0  0  0  0  0  0  0
  -15.1660  -24.8480   -9.5600 N   0  0  0  0  0  0  0  0  0  0  0  0
  -15.8000  -23.9910   -9.4140 H   0  0  0  0  0  0  0  0  0  0  0  0
  -14.8300  -24.6730  -11.0320 O   0  0  0  0  0  0  0  0  0  0  0  0
  -14.9450  -26.0380  -11.5660 C   0  0  2  0  0  0  0  0  0  0  0  0
  -13.7340  -26.4270  -12.4210 C   0  0  1  0  0  0  0  0  0  0  0  0
  -13.8600  -25.9190  -13.8580 C   0  0  2  0  0  0  0  0  0  0  0  0
  -15.1860  -26.3960  -14.3980 C   0  0  1  0  0  0  0  0  0  0  0  0
  -16.2830  -25.7440  -13.5760 C   0  0  2  0  0  0  0  0  0  0  0  0
  -16.2080  -26.2420  -12.2420 O   0  0  0  0  0  0  0  0  0  0  0  0
  -15.0190  -26.9660  -10.4010 C   0  0  0  0  0  0  0  0  0  0  0  0
  -15.7070  -26.5800   -8.0530 C   0  0  0  0  0  0  0  0  0  0  0  0
  -14.5630  -27.2720   -7.6070 C   0  0  0  0  0  0  0  0  0  0  0  0
  -14.4350  -27.7360   -6.2780 C   0  0  0  0  0  0  0  0  0  0  0  0
  -15.4710  -27.4960   -5.4030 C   0  0  0  0  0  0  0  0  0  0  0  0
  -15.3390  -27.9740   -3.9660 C   0  0  0  0  0  0  0  0  0  0  0  0
  -16.6020  -26.8050   -5.8030 C   0  0  0  0  0  0  0  0  0  0  0  0
  -16.7150  -26.3480   -7.1210 C   0  0  0  0  0  0  0  0  0  0  0  0
  -12.7540  -26.4860  -14.6460 O   0  0  0  0  0  0  0  0  0  0  0  0
  -12.7000  -27.4340  -14.4110 H   0  0  0  0  0  0  0  0  0  0  0  0
  -12.5310  -25.8920  -11.7860 O   0  0  0  0  0  0  0  0  0  0  0  0
  -11.7870  -26.5350  -11.9810 H   0  0  0  0  0  0  0  0  0  0  0  0
  -15.3420  -26.1150  -15.8110 O   0  0  0  0  0  0  0  0  0  0  0  0
  -15.8960  -25.3220  -15.9280 H   0  0  0  0  0  0  0  0  0  0  0  0
  -17.6530  -26.1940  -14.0410 C   0  0  0  0  0  0  0  0  0  0  0  0
  -17.5400  -27.5990  -14.4440 O   0  0  0  0  0  0  0  0  0  0  0  0
  -18.0140  -27.6690  -15.3030 H   0  0  0  0  0  0  0  0  0  0  0  0
  1 12  1  1  0  0  0
  2  1  1  0  0  0  0
  2  3  1  0  0  0  0
  4  2  1  0  0  0  0
  5  4  1  0  0  0  0
  5 11  1  1  0  0  0
  6 21  1  0  0  0  0
  6  5  1  1  0  0  0
  7 19  1  6  0  0  0
  7  6  1  0  0  0  0
  8 23  1  6  0  0  0
  8  7  1  0  0  0  0
  8  9  1  0  0  0  0
  9 25  1  6  0  0  0
  9 10  1  0  0  0  0
 10  5  1  0  0  0  0
 11  1  1  0  0  0  0
 12 13  2  0  0  0  0
 12 18  1  0  0  0  0
 13 14  1  0  0  0  0
 14 15  2  0  0  0  0
 15 16  1  0  0  0  0
 17 15  1  0  0  0  0
 18 17  2  0  0  0  0
 19 20  1  0  0  0  0
 22 21  1  0  0  0  0
 24 23  1  0  0  0  0
 26 25  1  0  0  0  0
 27 26  1  0  0  0  0
M  END
>  <minimizedAffinity>
-7.30969954

$$$$
