
 OpenBabel12271914513D

 37 41  0  0  1  0  0  0  0  0999 V2000
  -16.1080  -26.5710  -10.2230 C   0  0  2  0  0  0  0  0  0  0  0  0
  -16.2950  -27.8670   -9.6470 O   0  0  0  0  0  0  0  0  0  0  0  0
  -17.3430  -28.6050  -10.0110 C   0  0  0  0  0  0  0  0  0  0  0  0
  -17.2580  -29.8210   -9.9080 O   0  0  0  0  0  0  0  0  0  0  0  0
  -18.5270  -27.9040  -10.5220 C   0  0  1  0  0  0  0  0  0  0  0  0
  -18.6270  -26.5250  -10.6360 C   0  0  0  0  0  0  0  0  0  0  0  0
  -19.4970  -25.7880  -11.0700 O   0  0  0  0  0  0  0  0  0  0  0  0
  -17.3840  -25.7380  -10.1610 C   0  0  0  0  0  0  0  0  0  0  0  0
  -15.7120  -26.7970  -11.6830 C   0  0  0  0  0  0  0  0  0  0  0  0
  -14.2280  -27.0470  -11.9200 C   0  0  0  0  0  0  0  0  0  0  0  0
  -14.1540  -27.0570  -13.4360 C   0  0  0  0  0  0  0  0  0  0  0  0
  -15.2760  -26.1380  -13.9200 C   0  0  0  0  0  0  0  0  0  0  0  0
  -16.0240  -25.6890  -12.6760 C   0  0  0  0  0  0  0  0  0  0  0  0
  -19.6610  -28.8670  -10.9320 C   0  0  0  0  0  0  0  0  0  0  0  0
  -19.6090  -29.3960  -12.3660 C   0  0  0  0  0  0  0  0  0  0  0  0
  -20.6740  -29.9730  -13.0330 N   0  0  0  0  0  0  0  0  0  0  0  0
  -20.1670  -30.2640  -14.2330 C   0  0  0  0  0  0  0  0  0  0  0  0
  -20.7440  -30.8840  -15.3390 N   0  0  0  0  0  0  0  0  0  0  0  0
  -20.0520  -31.1180  -16.4150 C   0  0  0  0  0  0  0  0  0  0  0  0
  -20.6710  -31.7950  -17.6300 C   0  0  0  0  0  0  0  0  0  0  0  0
  -18.6160  -30.7700  -16.5020 C   0  0  0  0  0  0  0  0  0  0  0  0
  -18.0770  -30.1860  -15.4400 C   0  0  0  0  0  0  0  0  0  0  0  0
  -16.6250  -29.8130  -15.4090 C   0  0  0  0  0  0  0  0  0  0  0  0
  -18.8530  -29.9100  -14.2770 N   0  0  0  0  0  0  0  0  0  0  0  0
  -18.4680  -29.4060  -13.0840 N   0  0  0  0  0  0  0  0  0  0  0  0
  -14.8980  -25.9220   -9.4910 C   0  0  0  0  0  0  0  0  0  0  0  0
  -15.3900  -25.0010   -8.3830 C   0  0  0  0  0  0  0  0  0  0  0  0
  -17.5440  -26.3510   -5.6410 C   0  0  0  0  0  0  0  0  0  0  0  0
  -16.7050  -27.1860   -4.9690 N   0  0  0  0  0  0  0  0  0  0  0  0
  -15.4440  -27.2960   -5.4200 C   0  0  0  0  0  0  0  0  0  0  0  0
  -14.9910  -26.6140   -6.5260 C   0  0  0  0  0  0  0  0  0  0  0  0
  -15.8580  -25.7570   -7.2040 C   0  0  0  0  0  0  0  0  0  0  0  0
  -17.1640  -25.6350   -6.7540 C   0  0  0  0  0  0  0  0  0  0  0  0
  -19.9250  -25.8660   -6.2570 C   0  0  0  0  0  0  0  0  0  0  0  0
  -18.9530  -26.2050   -5.1450 C   0  0  0  0  0  0  0  0  0  0  0  0
  -14.5050  -28.2140   -4.6750 C   0  0  0  0  0  0  0  0  0  0  0  0
  -15.0920  -28.6600   -3.3520 C   0  0  0  0  0  0  0  0  0  0  0  0
  1  8  1  0  0  0  0
  1  2  1  0  0  0  0
  1 26  1  1  0  0  0
  3  4  2  0  0  0  0
  3  2  1  0  0  0  0
  5 14  1  6  0  0  0
  5  3  1  0  0  0  0
  6  5  1  0  0  0  0
  6  8  1  0  0  0  0
  7  6  2  0  0  0  0
  9  1  1  0  0  0  0
 10  9  1  0  0  0  0
 11 10  1  0  0  0  0
 12 11  1  0  0  0  0
 12 13  1  0  0  0  0
 13  9  1  0  0  0  0
 15 14  1  0  0  0  0
 16 15  2  0  0  0  0
 17 16  2  0  0  0  0
 18 17  2  0  0  0  0
 19 18  2  0  0  0  0
 20 19  1  0  0  0  0
 21 19  1  0  0  0  0
 21 22  2  0  0  0  0
 22 23  1  0  0  0  0
 22 24  1  0  0  0  0
 24 17  1  0  0  0  0
 24 25  1  0  0  0  0
 25 15  2  0  0  0  0
 26 27  1  0  0  0  0
 27 32  1  0  0  0  0
 28 35  1  0  0  0  0
 28 29  2  0  0  0  0
 30 29  2  0  0  0  0
 30 36  1  0  0  0  0
 31 30  1  0  0  0  0
 32 33  1  0  0  0  0
 32 31  2  0  0  0  0
 33 28  1  0  0  0  0
 34 35  1  0  0  0  0
 36 37  1  0  0  0  0
M  END
>  <minimizedAffinity>
-9.56853867

$$$$

 OpenBabel12271914513D

 37 41  0  0  1  0  0  0  0  0999 V2000
  -16.0310  -26.5160  -10.2840 C   0  0  2  0  0  0  0  0  0  0  0  0
  -16.2920  -27.7890   -9.6840 O   0  0  0  0  0  0  0  0  0  0  0  0
  -17.3400  -28.5040  -10.0880 C   0  0  0  0  0  0  0  0  0  0  0  0
  -17.3000  -29.7190   -9.9470 O   0  0  0  0  0  0  0  0  0  0  0  0
  -18.4710  -27.7830  -10.6850 C   0  0  1  0  0  0  0  0  0  0  0  0
  -18.5200  -26.4050  -10.8430 C   0  0  0  0  0  0  0  0  0  0  0  0
  -19.3390  -25.6550  -11.3450 O   0  0  0  0  0  0  0  0  0  0  0  0
  -17.2810  -25.6430  -10.3180 C   0  0  0  0  0  0  0  0  0  0  0  0
  -15.5600  -26.7960  -11.7110 C   0  0  0  0  0  0  0  0  0  0  0  0
  -14.0480  -26.8430  -11.8970 C   0  0  0  0  0  0  0  0  0  0  0  0
  -13.9250  -26.9610  -13.4060 C   0  0  0  0  0  0  0  0  0  0  0  0
  -15.1530  -26.2590  -13.9860 C   0  0  0  0  0  0  0  0  0  0  0  0
  -15.9970  -25.8280  -12.7990 C   0  0  0  0  0  0  0  0  0  0  0  0
  -19.6090  -28.7220  -11.1340 C   0  0  0  0  0  0  0  0  0  0  0  0
  -19.4690  -29.3310  -12.5300 C   0  0  0  0  0  0  0  0  0  0  0  0
  -18.2790  -29.4480  -13.2240 N   0  0  0  0  0  0  0  0  0  0  0  0
  -18.6420  -30.0370  -14.3660 C   0  0  0  0  0  0  0  0  0  0  0  0
  -17.8930  -30.3950  -15.4840 N   0  0  0  0  0  0  0  0  0  0  0  0
  -18.4570  -30.9260  -16.5280 C   0  0  0  0  0  0  0  0  0  0  0  0
  -17.6490  -31.3210  -17.7570 C   0  0  0  0  0  0  0  0  0  0  0  0
  -19.9200  -31.1420  -16.5920 C   0  0  0  0  0  0  0  0  0  0  0  0
  -20.6220  -30.7910  -15.5220 C   0  0  0  0  0  0  0  0  0  0  0  0
  -22.1140  -30.9420  -15.4870 C   0  0  0  0  0  0  0  0  0  0  0  0
  -19.9890  -30.2350  -14.3730 N   0  0  0  0  0  0  0  0  0  0  0  0
  -20.5370  -29.7460  -13.2400 N   0  0  0  0  0  0  0  0  0  0  0  0
  -14.8440  -25.8830   -9.5010 C   0  0  0  0  0  0  0  0  0  0  0  0
  -15.3700  -24.9550   -8.4140 C   0  0  0  0  0  0  0  0  0  0  0  0
  -15.5100  -27.2480   -5.4630 C   0  0  0  0  0  0  0  0  0  0  0  0
  -16.7900  -27.1080   -5.0210 N   0  0  0  0  0  0  0  0  0  0  0  0
  -17.5930  -26.2670   -5.6960 C   0  0  0  0  0  0  0  0  0  0  0  0
  -17.1630  -25.5480   -6.7880 C   0  0  0  0  0  0  0  0  0  0  0  0
  -15.8500  -25.7030   -7.2340 C   0  0  0  0  0  0  0  0  0  0  0  0
  -15.0070  -26.5630   -6.5470 C   0  0  0  0  0  0  0  0  0  0  0  0
  -15.1300  -28.5510   -3.3560 C   0  0  0  0  0  0  0  0  0  0  0  0
  -14.6020  -28.1910   -4.7300 C   0  0  0  0  0  0  0  0  0  0  0  0
  -19.0170  -26.1140   -5.2180 C   0  0  0  0  0  0  0  0  0  0  0  0
  -19.9730  -25.8890   -6.3710 C   0  0  0  0  0  0  0  0  0  0  0  0
  1  2  1  0  0  0  0
  1 26  1  1  0  0  0
  3  4  2  0  0  0  0
  3  2  1  0  0  0  0
  5 14  1  6  0  0  0
  5  3  1  0  0  0  0
  6  5  1  0  0  0  0
  6  8  1  0  0  0  0
  7  6  2  0  0  0  0
  8  1  1  0  0  0  0
  9  1  1  0  0  0  0
 10  9  1  0  0  0  0
 11 10  1  0  0  0  0
 12 11  1  0  0  0  0
 12 13  1  0  0  0  0
 13  9  1  0  0  0  0
 15 14  1  0  0  0  0
 16 15  2  0  0  0  0
 17 16  2  0  0  0  0
 18 17  2  0  0  0  0
 19 18  2  0  0  0  0
 20 19  1  0  0  0  0
 21 19  1  0  0  0  0
 21 22  2  0  0  0  0
 22 23  1  0  0  0  0
 22 24  1  0  0  0  0
 24 17  1  0  0  0  0
 24 25  1  0  0  0  0
 25 15  2  0  0  0  0
 26 27  1  0  0  0  0
 27 32  1  0  0  0  0
 28 29  2  0  0  0  0
 28 35  1  0  0  0  0
 30 36  1  0  0  0  0
 30 29  2  0  0  0  0
 31 30  1  0  0  0  0
 32 31  2  0  0  0  0
 32 33  1  0  0  0  0
 33 28  1  0  0  0  0
 35 34  1  0  0  0  0
 37 36  1  0  0  0  0
M  END
>  <minimizedAffinity>
-9.56307602

$$$$

 OpenBabel12271914513D

 37 41  0  0  1  0  0  0  0  0999 V2000
  -16.3490  -25.9980  -10.4290 C   0  0  2  0  0  0  0  0  0  0  0  0
  -16.9750  -25.0700  -11.3180 O   0  0  0  0  0  0  0  0  0  0  0  0
  -17.0870  -25.3700  -12.6120 C   0  0  0  0  0  0  0  0  0  0  0  0
  -17.9900  -24.8460  -13.2510 O   0  0  0  0  0  0  0  0  0  0  0  0
  -16.1220  -26.3190  -13.1790 C   0  0  1  0  0  0  0  0  0  0  0  0
  -15.0950  -26.9110  -12.4570 C   0  0  0  0  0  0  0  0  0  0  0  0
  -14.2450  -27.7360  -12.7460 O   0  0  0  0  0  0  0  0  0  0  0  0
  -15.0090  -26.4840  -10.9730 C   0  0  0  0  0  0  0  0  0  0  0  0
  -17.3080  -27.1810  -10.2900 C   0  0  0  0  0  0  0  0  0  0  0  0
  -18.5840  -26.8920   -9.5080 C   0  0  0  0  0  0  0  0  0  0  0  0
  -19.2070  -28.2730   -9.4110 C   0  0  0  0  0  0  0  0  0  0  0  0
  -18.0420  -29.2640   -9.4220 C   0  0  0  0  0  0  0  0  0  0  0  0
  -16.7820  -28.4370   -9.6130 C   0  0  0  0  0  0  0  0  0  0  0  0
  -16.3710  -26.6030  -14.6740 C   0  0  0  0  0  0  0  0  0  0  0  0
  -15.4340  -25.9030  -15.6590 C   0  0  0  0  0  0  0  0  0  0  0  0
  -15.7030  -25.7100  -17.0020 N   0  0  0  0  0  0  0  0  0  0  0  0
  -14.6240  -25.0600  -17.4440 C   0  0  0  0  0  0  0  0  0  0  0  0
  -14.2890  -24.6110  -18.7190 N   0  0  0  0  0  0  0  0  0  0  0  0
  -13.1490  -24.0290  -18.9490 C   0  0  0  0  0  0  0  0  0  0  0  0
  -12.7720  -23.5350  -20.3390 C   0  0  0  0  0  0  0  0  0  0  0  0
  -12.1430  -23.8490  -17.8790 C   0  0  0  0  0  0  0  0  0  0  0  0
  -12.4710  -24.2860  -16.6700 C   0  0  0  0  0  0  0  0  0  0  0  0
  -11.5180  -24.1770  -15.5170 C   0  0  0  0  0  0  0  0  0  0  0  0
  -13.7350  -24.8970  -16.4250 N   0  0  0  0  0  0  0  0  0  0  0  0
  -14.2100  -25.4720  -15.2980 N   0  0  0  0  0  0  0  0  0  0  0  0
  -16.2460  -25.2970   -9.0430 C   0  0  0  0  0  0  0  0  0  0  0  0
  -15.1040  -25.8980   -8.2360 C   0  0  0  0  0  0  0  0  0  0  0  0
  -17.2170  -26.6790   -5.2500 C   0  0  0  0  0  0  0  0  0  0  0  0
  -16.4070  -27.4700   -4.4950 N   0  0  0  0  0  0  0  0  0  0  0  0
  -15.1780  -27.7370   -4.9700 C   0  0  0  0  0  0  0  0  0  0  0  0
  -14.7310  -27.2550   -6.1790 C   0  0  0  0  0  0  0  0  0  0  0  0
  -15.5680  -26.4410   -6.9430 C   0  0  0  0  0  0  0  0  0  0  0  0
  -16.8400  -26.1590   -6.4700 C   0  0  0  0  0  0  0  0  0  0  0  0
  -19.5650  -26.0360   -5.8420 C   0  0  0  0  0  0  0  0  0  0  0  0
  -18.5880  -26.3600   -4.7310 C   0  0  0  0  0  0  0  0  0  0  0  0
  -14.2710  -28.6070   -4.1340 C   0  0  0  0  0  0  0  0  0  0  0  0
  -14.7790  -28.7400   -2.7130 C   0  0  0  0  0  0  0  0  0  0  0  0
  1  9  1  0  0  0  0
  1 26  1  1  0  0  0
  2  1  1  0  0  0  0
  3  2  1  0  0  0  0
  4  3  2  0  0  0  0
  5 14  1  1  0  0  0
  5  3  1  0  0  0  0
  5  6  1  0  0  0  0
  6  8  1  0  0  0  0
  7  6  2  0  0  0  0
  8  1  1  0  0  0  0
  9 13  1  0  0  0  0
  9 10  1  0  0  0  0
 10 11  1  0  0  0  0
 12 11  1  0  0  0  0
 13 12  1  0  0  0  0
 15 25  2  0  0  0  0
 15 14  1  0  0  0  0
 16 15  2  0  0  0  0
 17 16  2  0  0  0  0
 17 24  1  0  0  0  0
 18 17  2  0  0  0  0
 19 18  2  0  0  0  0
 19 21  1  0  0  0  0
 20 19  1  0  0  0  0
 21 22  2  0  0  0  0
 22 24  1  0  0  0  0
 22 23  1  0  0  0  0
 24 25  1  0  0  0  0
 26 27  1  0  0  0  0
 27 32  1  0  0  0  0
 28 35  1  0  0  0  0
 28 29  2  0  0  0  0
 30 29  2  0  0  0  0
 30 36  1  0  0  0  0
 31 30  1  0  0  0  0
 32 33  1  0  0  0  0
 32 31  2  0  0  0  0
 33 28  1  0  0  0  0
 34 35  1  0  0  0  0
 36 37  1  0  0  0  0
M  END
>  <minimizedAffinity>
-9.30828094

$$$$

 OpenBabel12271914513D

 37 41  0  0  1  0  0  0  0  0999 V2000
  -16.1320  -26.6550  -10.7330 C   0  0  2  0  0  0  0  0  0  0  0  0
  -16.5460  -27.9860  -10.4110 O   0  0  0  0  0  0  0  0  0  0  0  0
  -17.5840  -28.5250  -11.0500 C   0  0  0  0  0  0  0  0  0  0  0  0
  -17.6410  -29.7450  -11.1330 O   0  0  0  0  0  0  0  0  0  0  0  0
  -18.5840  -27.6150  -11.6190 C   0  0  1  0  0  0  0  0  0  0  0  0
  -18.5230  -26.2320  -11.5230 C   0  0  0  0  0  0  0  0  0  0  0  0
  -19.2250  -25.3370  -11.9620 O   0  0  0  0  0  0  0  0  0  0  0  0
  -17.3080  -25.6840  -10.7370 C   0  0  0  0  0  0  0  0  0  0  0  0
  -15.5130  -26.7190  -12.1300 C   0  0  0  0  0  0  0  0  0  0  0  0
  -13.9890  -26.7680  -12.1610 C   0  0  0  0  0  0  0  0  0  0  0  0
  -13.7060  -26.6510  -13.6480 C   0  0  0  0  0  0  0  0  0  0  0  0
  -14.8620  -25.8400  -14.2360 C   0  0  0  0  0  0  0  0  0  0  0  0
  -15.8260  -25.5830  -13.0900 C   0  0  0  0  0  0  0  0  0  0  0  0
  -19.7190  -28.3580  -12.3530 C   0  0  0  0  0  0  0  0  0  0  0  0
  -20.9810  -28.6380  -11.5350 C   0  0  0  0  0  0  0  0  0  0  0  0
  -21.4630  -29.8980  -11.2360 N   0  0  0  0  0  0  0  0  0  0  0  0
  -22.5550  -29.6490  -10.5100 C   0  0  0  0  0  0  0  0  0  0  0  0
  -23.4870  -30.5120   -9.9390 N   0  0  0  0  0  0  0  0  0  0  0  0
  -24.5220  -30.0550   -9.2980 C   0  0  0  0  0  0  0  0  0  0  0  0
  -25.5480  -30.9900   -8.6710 C   0  0  0  0  0  0  0  0  0  0  0  0
  -24.7760  -28.6020   -9.1740 C   0  0  0  0  0  0  0  0  0  0  0  0
  -23.8830  -27.7910   -9.7270 C   0  0  0  0  0  0  0  0  0  0  0  0
  -24.0540  -26.3020   -9.6830 C   0  0  0  0  0  0  0  0  0  0  0  0
  -22.7390  -28.3040  -10.4040 N   0  0  0  0  0  0  0  0  0  0  0  0
  -21.7800  -27.6470  -11.0920 N   0  0  0  0  0  0  0  0  0  0  0  0
  -15.0090  -26.2760   -9.7250 C   0  0  0  0  0  0  0  0  0  0  0  0
  -15.5280  -25.2520   -8.7240 C   0  0  0  0  0  0  0  0  0  0  0  0
  -17.6440  -26.3060   -5.8250 C   0  0  0  0  0  0  0  0  0  0  0  0
  -16.8030  -27.0900   -5.0960 N   0  0  0  0  0  0  0  0  0  0  0  0
  -15.5530  -27.2620   -5.5590 C   0  0  0  0  0  0  0  0  0  0  0  0
  -15.1130  -26.6930   -6.7330 C   0  0  0  0  0  0  0  0  0  0  0  0
  -15.9830  -25.8880   -7.4700 C   0  0  0  0  0  0  0  0  0  0  0  0
  -17.2770  -25.7030   -7.0080 C   0  0  0  0  0  0  0  0  0  0  0  0
  -20.0250  -25.8170   -6.4350 C   0  0  0  0  0  0  0  0  0  0  0  0
  -19.0390  -26.0920   -5.3180 C   0  0  0  0  0  0  0  0  0  0  0  0
  -14.6120  -28.1220   -4.7510 C   0  0  0  0  0  0  0  0  0  0  0  0
  -15.2070  -28.4920   -3.4080 C   0  0  0  0  0  0  0  0  0  0  0  0
  1  2  1  0  0  0  0
  1 26  1  1  0  0  0
  3  2  1  0  0  0  0
  4  3  2  0  0  0  0
  5 14  1  6  0  0  0
  5  6  1  0  0  0  0
  5  3  1  0  0  0  0
  6  8  1  0  0  0  0
  7  6  2  0  0  0  0
  8  1  1  0  0  0  0
  9  1  1  0  0  0  0
 10  9  1  0  0  0  0
 11 10  1  0  0  0  0
 12 11  1  0  0  0  0
 12 13  1  0  0  0  0
 13  9  1  0  0  0  0
 14 15  1  0  0  0  0
 15 16  2  0  0  0  0
 15 25  2  0  0  0  0
 16 17  2  0  0  0  0
 17 24  1  0  0  0  0
 17 18  2  0  0  0  0
 18 19  2  0  0  0  0
 19 21  1  0  0  0  0
 19 20  1  0  0  0  0
 22 23  1  0  0  0  0
 22 21  2  0  0  0  0
 24 22  1  0  0  0  0
 25 24  1  0  0  0  0
 26 27  1  0  0  0  0
 27 32  1  0  0  0  0
 28 35  1  0  0  0  0
 28 29  2  0  0  0  0
 30 29  2  0  0  0  0
 30 36  1  0  0  0  0
 31 30  1  0  0  0  0
 32 33  1  0  0  0  0
 32 31  2  0  0  0  0
 33 28  1  0  0  0  0
 34 35  1  0  0  0  0
 36 37  1  0  0  0  0
M  END
>  <minimizedAffinity>
-9.30026245

$$$$

 OpenBabel12271914513D

 37 41  0  0  1  0  0  0  0  0999 V2000
  -15.9430  -26.5970  -10.4530 C   0  0  2  0  0  0  0  0  0  0  0  0
  -16.3360  -27.8960  -10.0030 O   0  0  0  0  0  0  0  0  0  0  0  0
  -17.4190  -28.4730  -10.5220 C   0  0  0  0  0  0  0  0  0  0  0  0
  -17.4860  -29.6950  -10.5090 O   0  0  0  0  0  0  0  0  0  0  0  0
  -18.4550  -27.5990  -11.0860 C   0  0  1  0  0  0  0  0  0  0  0  0
  -18.3830  -26.2130  -11.0990 C   0  0  0  0  0  0  0  0  0  0  0  0
  -19.1120  -25.3480  -11.5530 O   0  0  0  0  0  0  0  0  0  0  0  0
  -17.1130  -25.6190  -10.4460 C   0  0  0  0  0  0  0  0  0  0  0  0
  -15.4260  -26.7710  -11.8820 C   0  0  0  0  0  0  0  0  0  0  0  0
  -13.9120  -26.8830  -12.0140 C   0  0  0  0  0  0  0  0  0  0  0  0
  -13.7300  -26.8690  -13.5210 C   0  0  0  0  0  0  0  0  0  0  0  0
  -14.8940  -26.0500  -14.0790 C   0  0  0  0  0  0  0  0  0  0  0  0
  -15.7650  -25.6840  -12.8900 C   0  0  0  0  0  0  0  0  0  0  0  0
  -19.6430  -28.3860  -11.6780 C   0  0  0  0  0  0  0  0  0  0  0  0
  -21.0280  -28.0160  -11.1450 C   0  0  0  0  0  0  0  0  0  0  0  0
  -21.2770  -27.4980   -9.8880 N   0  0  0  0  0  0  0  0  0  0  0  0
  -22.6010  -27.3280   -9.8790 C   0  0  0  0  0  0  0  0  0  0  0  0
  -23.4530  -26.8630   -8.8810 N   0  0  0  0  0  0  0  0  0  0  0  0
  -24.7400  -26.8160   -9.0630 C   0  0  0  0  0  0  0  0  0  0  0  0
  -25.6820  -26.3110   -7.9780 C   0  0  0  0  0  0  0  0  0  0  0  0
  -25.3600  -27.2870  -10.3220 C   0  0  0  0  0  0  0  0  0  0  0  0
  -24.5380  -27.7330  -11.2630 C   0  0  0  0  0  0  0  0  0  0  0  0
  -25.0600  -28.2560  -12.5670 C   0  0  0  0  0  0  0  0  0  0  0  0
  -23.1280  -27.7530  -11.0610 N   0  0  0  0  0  0  0  0  0  0  0  0
  -22.1510  -28.2410  -11.8560 N   0  0  0  0  0  0  0  0  0  0  0  0
  -14.7480  -26.1520   -9.5600 C   0  0  0  0  0  0  0  0  0  0  0  0
  -15.2260  -25.1730   -8.4970 C   0  0  0  0  0  0  0  0  0  0  0  0
  -15.4350  -27.3250   -5.4460 C   0  0  0  0  0  0  0  0  0  0  0  0
  -16.7270  -27.1700   -5.0440 N   0  0  0  0  0  0  0  0  0  0  0  0
  -17.5150  -26.3650   -5.7770 C   0  0  0  0  0  0  0  0  0  0  0  0
  -17.0580  -25.6960   -6.8910 C   0  0  0  0  0  0  0  0  0  0  0  0
  -15.7340  -25.8670   -7.2960 C   0  0  0  0  0  0  0  0  0  0  0  0
  -14.9060  -26.6900   -6.5480 C   0  0  0  0  0  0  0  0  0  0  0  0
  -15.1620  -28.6280   -3.3230 C   0  0  0  0  0  0  0  0  0  0  0  0
  -14.5440  -28.2300   -4.6470 C   0  0  0  0  0  0  0  0  0  0  0  0
  -18.9500  -26.1940   -5.3430 C   0  0  0  0  0  0  0  0  0  0  0  0
  -19.8580  -25.8970   -6.5190 C   0  0  0  0  0  0  0  0  0  0  0  0
  1  8  1  0  0  0  0
  1  2  1  0  0  0  0
  1 26  1  1  0  0  0
  3  4  2  0  0  0  0
  3  2  1  0  0  0  0
  5 14  1  6  0  0  0
  5  3  1  0  0  0  0
  6  5  1  0  0  0  0
  6  8  1  0  0  0  0
  7  6  2  0  0  0  0
  9  1  1  0  0  0  0
 10  9  1  0  0  0  0
 11 10  1  0  0  0  0
 12 11  1  0  0  0  0
 12 13  1  0  0  0  0
 13  9  1  0  0  0  0
 14 15  1  0  0  0  0
 15 16  2  0  0  0  0
 16 17  2  0  0  0  0
 17 18  2  0  0  0  0
 19 18  2  0  0  0  0
 19 20  1  0  0  0  0
 21 19  1  0  0  0  0
 22 24  1  0  0  0  0
 22 21  2  0  0  0  0
 23 22  1  0  0  0  0
 24 17  1  0  0  0  0
 25 15  2  0  0  0  0
 25 24  1  0  0  0  0
 26 27  1  0  0  0  0
 27 32  1  0  0  0  0
 28 29  2  0  0  0  0
 28 35  1  0  0  0  0
 30 36  1  0  0  0  0
 30 29  2  0  0  0  0
 31 30  1  0  0  0  0
 32 31  2  0  0  0  0
 32 33  1  0  0  0  0
 33 28  1  0  0  0  0
 35 34  1  0  0  0  0
 37 36  1  0  0  0  0
M  END
>  <minimizedAffinity>
-9.28128529

$$$$

 OpenBabel12271914513D

 37 41  0  0  1  0  0  0  0  0999 V2000
  -15.4150  -26.4570   -9.8520 C   0  0  2  0  0  0  0  0  0  0  0  0
  -15.7600  -27.5690   -9.0220 O   0  0  0  0  0  0  0  0  0  0  0  0
  -16.6570  -27.4110   -8.0490 C   0  0  0  0  0  0  0  0  0  0  0  0
  -17.2840  -28.3940   -7.6750 O   0  0  0  0  0  0  0  0  0  0  0  0
  -16.8390  -26.0620   -7.5000 C   0  0  1  0  0  0  0  0  0  0  0  0
  -16.1270  -24.9470   -7.9210 C   0  0  0  0  0  0  0  0  0  0  0  0
  -16.1750  -23.7680   -7.6160 O   0  0  0  0  0  0  0  0  0  0  0  0
  -15.0810  -25.2190   -9.0270 C   0  0  0  0  0  0  0  0  0  0  0  0
  -16.6340  -26.1760  -10.7320 C   0  0  0  0  0  0  0  0  0  0  0  0
  -17.0270  -27.3070  -11.6750 C   0  0  0  0  0  0  0  0  0  0  0  0
  -18.1250  -26.6570  -12.4960 C   0  0  0  0  0  0  0  0  0  0  0  0
  -17.7970  -25.1640  -12.5350 C   0  0  0  0  0  0  0  0  0  0  0  0
  -16.5670  -24.9770  -11.6640 C   0  0  0  0  0  0  0  0  0  0  0  0
  -17.9210  -26.0040   -6.4020 C   0  0  0  0  0  0  0  0  0  0  0  0
  -19.3670  -25.8880   -6.8850 C   0  0  0  0  0  0  0  0  0  0  0  0
  -20.4720  -25.8270   -6.0580 N   0  0  0  0  0  0  0  0  0  0  0  0
  -21.4940  -25.7230   -6.9110 C   0  0  0  0  0  0  0  0  0  0  0  0
  -22.8660  -25.6500   -6.6850 N   0  0  0  0  0  0  0  0  0  0  0  0
  -23.7080  -25.5980   -7.6750 C   0  0  0  0  0  0  0  0  0  0  0  0
  -25.2100  -25.5190   -7.4400 C   0  0  0  0  0  0  0  0  0  0  0  0
  -23.2520  -25.6490   -9.0820 C   0  0  0  0  0  0  0  0  0  0  0  0
  -21.9430  -25.7240   -9.2830 C   0  0  0  0  0  0  0  0  0  0  0  0
  -21.3720  -25.8070  -10.6670 C   0  0  0  0  0  0  0  0  0  0  0  0
  -21.0290  -25.7530   -8.1900 N   0  0  0  0  0  0  0  0  0  0  0  0
  -19.6870  -25.9110   -8.1940 N   0  0  0  0  0  0  0  0  0  0  0  0
  -14.2530  -26.9280  -10.7760 C   0  0  0  0  0  0  0  0  0  0  0  0
  -13.4920  -25.7240  -11.3130 C   0  0  0  0  0  0  0  0  0  0  0  0
  -13.8200  -26.7470  -14.8950 C   0  0  0  0  0  0  0  0  0  0  0  0
  -13.0220  -25.8570  -15.5470 N   0  0  0  0  0  0  0  0  0  0  0  0
  -12.3840  -24.9340  -14.8060 C   0  0  0  0  0  0  0  0  0  0  0  0
  -12.5230  -24.8560  -13.4390 C   0  0  0  0  0  0  0  0  0  0  0  0
  -13.3400  -25.7770  -12.7820 C   0  0  0  0  0  0  0  0  0  0  0  0
  -14.0090  -26.7330  -13.5310 C   0  0  0  0  0  0  0  0  0  0  0  0
  -15.2660  -28.7930  -14.8350 C   0  0  0  0  0  0  0  0  0  0  0  0
  -14.5310  -27.7930  -15.7030 C   0  0  0  0  0  0  0  0  0  0  0  0
  -11.4910  -23.9500  -15.5210 C   0  0  0  0  0  0  0  0  0  0  0  0
  -10.6310  -24.6310  -16.5650 C   0  0  0  0  0  0  0  0  0  0  0  0
  1 26  1  6  0  0  0
  1  8  1  0  0  0  0
  1  2  1  0  0  0  0
  2  3  1  0  0  0  0
  3  4  2  0  0  0  0
  3  5  1  0  0  0  0
  5 14  1  6  0  0  0
  6  7  2  0  0  0  0
  6  5  1  0  0  0  0
  8  6  1  0  0  0  0
  9  1  1  0  0  0  0
 10  9  1  0  0  0  0
 11 10  1  0  0  0  0
 12 11  1  0  0  0  0
 12 13  1  0  0  0  0
 13  9  1  0  0  0  0
 15 14  1  0  0  0  0
 15 16  2  0  0  0  0
 17 18  2  0  0  0  0
 17 16  2  0  0  0  0
 19 20  1  0  0  0  0
 19 18  2  0  0  0  0
 21 19  1  0  0  0  0
 22 21  2  0  0  0  0
 22 24  1  0  0  0  0
 23 22  1  0  0  0  0
 24 17  1  0  0  0  0
 25 24  1  0  0  0  0
 25 15  2  0  0  0  0
 27 26  1  0  0  0  0
 28 33  1  0  0  0  0
 29 28  2  0  0  0  0
 29 30  2  0  0  0  0
 30 31  1  0  0  0  0
 31 32  2  0  0  0  0
 32 27  1  0  0  0  0
 33 32  1  0  0  0  0
 35 28  1  0  0  0  0
 35 34  1  0  0  0  0
 36 30  1  0  0  0  0
 37 36  1  0  0  0  0
M  END
>  <minimizedAffinity>
-9.15240288

$$$$

 OpenBabel12271914513D

 37 41  0  0  1  0  0  0  0  0999 V2000
  -17.4970  -26.5630  -13.1000 C   0  0  2  0  0  0  0  0  0  0  0  0
  -17.7750  -27.6990  -12.2770 O   0  0  0  0  0  0  0  0  0  0  0  0
  -18.1600  -28.8420  -12.8420 C   0  0  0  0  0  0  0  0  0  0  0  0
  -17.9430  -29.8860  -12.2400 O   0  0  0  0  0  0  0  0  0  0  0  0
  -18.8110  -28.7710  -14.1550 C   0  0  1  0  0  0  0  0  0  0  0  0
  -19.0610  -27.5880  -14.8370 C   0  0  0  0  0  0  0  0  0  0  0  0
  -19.5410  -27.3470  -15.9310 O   0  0  0  0  0  0  0  0  0  0  0  0
  -18.6180  -26.3030  -14.1010 C   0  0  0  0  0  0  0  0  0  0  0  0
  -16.2010  -26.8760  -13.8490 C   0  0  0  0  0  0  0  0  0  0  0  0
  -15.1680  -27.6670  -13.0540 C   0  0  0  0  0  0  0  0  0  0  0  0
  -13.9770  -27.6550  -13.9950 C   0  0  0  0  0  0  0  0  0  0  0  0
  -14.0900  -26.3620  -14.8030 C   0  0  0  0  0  0  0  0  0  0  0  0
  -15.3880  -25.7020  -14.3700 C   0  0  0  0  0  0  0  0  0  0  0  0
  -19.1850  -30.1600  -14.7130 C   0  0  0  0  0  0  0  0  0  0  0  0
  -18.3560  -30.6540  -15.9000 C   0  0  0  0  0  0  0  0  0  0  0  0
  -16.9790  -30.5750  -15.9880 N   0  0  0  0  0  0  0  0  0  0  0  0
  -16.7110  -31.1290  -17.1720 C   0  0  0  0  0  0  0  0  0  0  0  0
  -15.5030  -31.3180  -17.8380 N   0  0  0  0  0  0  0  0  0  0  0  0
  -15.4640  -31.8470  -19.0250 C   0  0  0  0  0  0  0  0  0  0  0  0
  -14.1490  -32.0560  -19.7630 C   0  0  0  0  0  0  0  0  0  0  0  0
  -16.7010  -32.2400  -19.7370 C   0  0  0  0  0  0  0  0  0  0  0  0
  -17.8460  -32.0500  -19.0940 C   0  0  0  0  0  0  0  0  0  0  0  0
  -19.1610  -32.3900  -19.7310 C   0  0  0  0  0  0  0  0  0  0  0  0
  -17.8720  -31.4950  -17.7820 N   0  0  0  0  0  0  0  0  0  0  0  0
  -18.9300  -31.1530  -17.0130 N   0  0  0  0  0  0  0  0  0  0  0  0
  -17.2220  -25.3670  -12.1410 C   0  0  0  0  0  0  0  0  0  0  0  0
  -17.6250  -25.7340  -10.7200 C   0  0  0  0  0  0  0  0  0  0  0  0
  -14.1160  -25.7530   -9.4260 C   0  0  0  0  0  0  0  0  0  0  0  0
  -14.2770  -25.9990   -8.0960 N   0  0  0  0  0  0  0  0  0  0  0  0
  -15.5310  -26.1580   -7.6390 C   0  0  0  0  0  0  0  0  0  0  0  0
  -16.6340  -26.0660   -8.4580 C   0  0  0  0  0  0  0  0  0  0  0  0
  -16.4570  -25.8190   -9.8190 C   0  0  0  0  0  0  0  0  0  0  0  0
  -15.1710  -25.6480  -10.3060 C   0  0  0  0  0  0  0  0  0  0  0  0
  -12.7060  -25.1960  -11.4210 C   0  0  0  0  0  0  0  0  0  0  0  0
  -12.7230  -25.5850   -9.9570 C   0  0  0  0  0  0  0  0  0  0  0  0
  -15.7170  -26.4390   -6.1680 C   0  0  0  0  0  0  0  0  0  0  0  0
  -14.8120  -27.5580   -5.6950 C   0  0  0  0  0  0  0  0  0  0  0  0
  1  2  1  0  0  0  0
  1 26  1  1  0  0  0
  3  2  1  0  0  0  0
  3  4  2  0  0  0  0
  5 14  1  6  0  0  0
  5  3  1  0  0  0  0
  6  5  1  0  0  0  0
  6  8  1  0  0  0  0
  7  6  2  0  0  0  0
  8  1  1  0  0  0  0
  9  1  1  0  0  0  0
  9 10  1  0  0  0  0
 11 10  1  0  0  0  0
 12 13  1  0  0  0  0
 12 11  1  0  0  0  0
 13  9  1  0  0  0  0
 15 14  1  0  0  0  0
 16 15  2  0  0  0  0
 17 16  2  0  0  0  0
 18 17  2  0  0  0  0
 19 18  2  0  0  0  0
 20 19  1  0  0  0  0
 21 22  2  0  0  0  0
 21 19  1  0  0  0  0
 22 24  1  0  0  0  0
 23 22  1  0  0  0  0
 24 17  1  0  0  0  0
 24 25  1  0  0  0  0
 25 15  2  0  0  0  0
 26 27  1  0  0  0  0
 27 32  1  0  0  0  0
 28 29  2  0  0  0  0
 29 30  2  0  0  0  0
 30 36  1  0  0  0  0
 31 30  1  0  0  0  0
 32 31  2  0  0  0  0
 33 32  1  0  0  0  0
 33 28  1  0  0  0  0
 34 35  1  0  0  0  0
 35 28  1  0  0  0  0
 36 37  1  0  0  0  0
M  END
>  <minimizedAffinity>
-9.06889153

$$$$

 OpenBabel12271914513D

 37 41  0  0  1  0  0  0  0  0999 V2000
  -17.9120  -27.5210  -10.7590 C   0  0  2  0  0  0  0  0  0  0  0  0
  -18.6960  -28.4170   -9.9670 O   0  0  0  0  0  0  0  0  0  0  0  0
  -20.0180  -28.4580  -10.1340 C   0  0  0  0  0  0  0  0  0  0  0  0
  -20.6060  -29.4900   -9.8380 O   0  0  0  0  0  0  0  0  0  0  0  0
  -20.6760  -27.2630  -10.6730 C   0  0  1  0  0  0  0  0  0  0  0  0
  -20.0120  -26.0910  -11.0060 C   0  0  0  0  0  0  0  0  0  0  0  0
  -20.3810  -25.0370  -11.4950 O   0  0  0  0  0  0  0  0  0  0  0  0
  -18.4860  -26.1090  -10.7500 C   0  0  0  0  0  0  0  0  0  0  0  0
  -17.9280  -28.0740  -12.1850 C   0  0  0  0  0  0  0  0  0  0  0  0
  -17.3770  -29.4870  -12.3390 C   0  0  0  0  0  0  0  0  0  0  0  0
  -17.3760  -29.6560  -13.8470 C   0  0  0  0  0  0  0  0  0  0  0  0
  -17.1810  -28.2560  -14.4300 C   0  0  0  0  0  0  0  0  0  0  0  0
  -17.1610  -27.3030  -13.2470 C   0  0  0  0  0  0  0  0  0  0  0  0
  -22.1990  -27.4440  -10.8430 C   0  0  0  0  0  0  0  0  0  0  0  0
  -23.0640  -27.0280   -9.6530 C   0  0  0  0  0  0  0  0  0  0  0  0
  -22.8540  -25.9010   -8.8810 N   0  0  0  0  0  0  0  0  0  0  0  0
  -23.8440  -25.9480   -7.9870 C   0  0  0  0  0  0  0  0  0  0  0  0
  -24.1530  -25.1020   -6.9250 N   0  0  0  0  0  0  0  0  0  0  0  0
  -25.1530  -25.3560   -6.1320 C   0  0  0  0  0  0  0  0  0  0  0  0
  -25.5000  -24.4390   -4.9670 C   0  0  0  0  0  0  0  0  0  0  0  0
  -25.9850  -26.5680   -6.3010 C   0  0  0  0  0  0  0  0  0  0  0  0
  -25.6770  -27.3680   -7.3140 C   0  0  0  0  0  0  0  0  0  0  0  0
  -26.4370  -28.6370   -7.5630 C   0  0  0  0  0  0  0  0  0  0  0  0
  -24.5950  -27.0650   -8.1910 N   0  0  0  0  0  0  0  0  0  0  0  0
  -24.0840  -27.7900   -9.2100 N   0  0  0  0  0  0  0  0  0  0  0  0
  -16.4520  -27.6080  -10.2260 C   0  0  0  0  0  0  0  0  0  0  0  0
  -16.1250  -26.3760   -9.3940 C   0  0  0  0  0  0  0  0  0  0  0  0
  -17.7530  -26.4790   -6.0280 C   0  0  0  0  0  0  0  0  0  0  0  0
  -16.7930  -27.0290   -5.2350 N   0  0  0  0  0  0  0  0  0  0  0  0
  -15.6230  -27.3570   -5.8100 C   0  0  0  0  0  0  0  0  0  0  0  0
  -15.3800  -27.1710   -7.1520 C   0  0  0  0  0  0  0  0  0  0  0  0
  -16.3690  -26.6020   -7.9540 C   0  0  0  0  0  0  0  0  0  0  0  0
  -17.5840  -26.2610   -7.3780 C   0  0  0  0  0  0  0  0  0  0  0  0
  -20.1280  -25.7900   -6.4340 C   0  0  0  0  0  0  0  0  0  0  0  0
  -19.0620  -26.0940   -5.4020 C   0  0  0  0  0  0  0  0  0  0  0  0
  -14.5510  -27.9590   -4.9360 C   0  0  0  0  0  0  0  0  0  0  0  0
  -15.1300  -28.5470   -3.6650 C   0  0  0  0  0  0  0  0  0  0  0  0
  1  8  1  0  0  0  0
  1 26  1  1  0  0  0
  1  2  1  0  0  0  0
  3  2  1  0  0  0  0
  3  4  2  0  0  0  0
  5 14  1  6  0  0  0
  5  3  1  0  0  0  0
  6  8  1  0  0  0  0
  6  5  1  0  0  0  0
  7  6  2  0  0  0  0
  9  1  1  0  0  0  0
 10  9  1  0  0  0  0
 11 10  1  0  0  0  0
 12 11  1  0  0  0  0
 12 13  1  0  0  0  0
 13  9  1  0  0  0  0
 14 15  1  0  0  0  0
 15 25  2  0  0  0  0
 15 16  2  0  0  0  0
 16 17  2  0  0  0  0
 17 18  2  0  0  0  0
 18 19  2  0  0  0  0
 19 20  1  0  0  0  0
 21 19  1  0  0  0  0
 22 21  2  0  0  0  0
 23 22  1  0  0  0  0
 24 17  1  0  0  0  0
 24 22  1  0  0  0  0
 25 24  1  0  0  0  0
 26 27  1  0  0  0  0
 27 32  1  0  0  0  0
 28 35  1  0  0  0  0
 28 29  2  0  0  0  0
 30 29  2  0  0  0  0
 30 36  1  0  0  0  0
 31 30  1  0  0  0  0
 32 33  1  0  0  0  0
 32 31  2  0  0  0  0
 33 28  1  0  0  0  0
 34 35  1  0  0  0  0
 36 37  1  0  0  0  0
M  END
>  <minimizedAffinity>
-9.01170635

$$$$

 OpenBabel12271914513D

 37 41  0  0  1  0  0  0  0  0999 V2000
  -19.7420  -27.0650  -10.2460 C   0  0  2  0  0  0  0  0  0  0  0  0
  -20.3070  -25.8460  -10.7350 O   0  0  0  0  0  0  0  0  0  0  0  0
  -21.5860  -25.5670  -10.4860 C   0  0  0  0  0  0  0  0  0  0  0  0
  -21.9300  -24.3920  -10.4740 O   0  0  0  0  0  0  0  0  0  0  0  0
  -22.4940  -26.6920  -10.2340 C   0  0  1  0  0  0  0  0  0  0  0  0
  -22.1070  -28.0240  -10.2510 C   0  0  0  0  0  0  0  0  0  0  0  0
  -22.7020  -29.0650  -10.0260 O   0  0  0  0  0  0  0  0  0  0  0  0
  -20.6160  -28.2680  -10.5820 C   0  0  0  0  0  0  0  0  0  0  0  0
  -19.6340  -26.9150   -8.7270 C   0  0  0  0  0  0  0  0  0  0  0  0
  -19.6650  -25.4800   -8.2140 C   0  0  0  0  0  0  0  0  0  0  0  0
  -19.3720  -25.6730   -6.7380 C   0  0  0  0  0  0  0  0  0  0  0  0
  -18.5090  -26.9310   -6.6390 C   0  0  0  0  0  0  0  0  0  0  0  0
  -18.3970  -27.4820   -8.0510 C   0  0  0  0  0  0  0  0  0  0  0  0
  -23.9380  -26.2390   -9.9340 C   0  0  0  0  0  0  0  0  0  0  0  0
  -24.3090  -26.1040   -8.4560 C   0  0  0  0  0  0  0  0  0  0  0  0
  -24.4600  -24.9040   -7.7870 N   0  0  0  0  0  0  0  0  0  0  0  0
  -24.7880  -25.2780   -6.5490 C   0  0  0  0  0  0  0  0  0  0  0  0
  -25.0430  -24.5230   -5.4070 N   0  0  0  0  0  0  0  0  0  0  0  0
  -25.3060  -25.0950   -4.2680 C   0  0  0  0  0  0  0  0  0  0  0  0
  -25.5850  -24.2800   -3.0130 C   0  0  0  0  0  0  0  0  0  0  0  0
  -25.3130  -26.5680   -4.1260 C   0  0  0  0  0  0  0  0  0  0  0  0
  -25.0640  -27.2750   -5.2200 C   0  0  0  0  0  0  0  0  0  0  0  0
  -25.0210  -28.7730   -5.1850 C   0  0  0  0  0  0  0  0  0  0  0  0
  -24.8030  -26.6370   -6.4670 N   0  0  0  0  0  0  0  0  0  0  0  0
  -24.4500  -27.1780   -7.6540 N   0  0  0  0  0  0  0  0  0  0  0  0
  -18.2990  -27.1570  -10.8230 C   0  0  0  0  0  0  0  0  0  0  0  0
  -17.7380  -25.7600  -11.0540 C   0  0  0  0  0  0  0  0  0  0  0  0
  -14.0340  -25.6040  -11.5460 C   0  0  0  0  0  0  0  0  0  0  0  0
  -13.5510  -25.5990  -10.2740 N   0  0  0  0  0  0  0  0  0  0  0  0
  -14.4430  -25.6500   -9.2690 C   0  0  0  0  0  0  0  0  0  0  0  0
  -15.8010  -25.6910   -9.4860 C   0  0  0  0  0  0  0  0  0  0  0  0
  -16.2840  -25.7000  -10.7950 C   0  0  0  0  0  0  0  0  0  0  0  0
  -15.3780  -25.6440  -11.8430 C   0  0  0  0  0  0  0  0  0  0  0  0
  -13.6870  -25.9260  -14.0070 C   0  0  0  0  0  0  0  0  0  0  0  0
  -13.0530  -25.5600  -12.6810 C   0  0  0  0  0  0  0  0  0  0  0  0
  -13.9150  -25.6540   -7.8550 C   0  0  0  0  0  0  0  0  0  0  0  0
  -14.8790  -26.3270   -6.9000 C   0  0  0  0  0  0  0  0  0  0  0  0
  1 26  1  6  0  0  0
  1  9  1  0  0  0  0
  2  3  1  0  0  0  0
  2  1  1  0  0  0  0
  3  4  2  0  0  0  0
  3  5  1  0  0  0  0
  5 14  1  1  0  0  0
  6  5  1  0  0  0  0
  6  7  2  0  0  0  0
  8  6  1  0  0  0  0
  8  1  1  0  0  0  0
  9 10  1  0  0  0  0
  9 13  1  0  0  0  0
 10 11  1  0  0  0  0
 11 12  1  0  0  0  0
 13 12  1  0  0  0  0
 14 15  1  0  0  0  0
 15 16  2  0  0  0  0
 15 25  2  0  0  0  0
 16 17  2  0  0  0  0
 17 24  1  0  0  0  0
 17 18  2  0  0  0  0
 18 19  2  0  0  0  0
 19 21  1  0  0  0  0
 19 20  1  0  0  0  0
 22 23  1  0  0  0  0
 22 21  2  0  0  0  0
 24 22  1  0  0  0  0
 25 24  1  0  0  0  0
 27 26  1  0  0  0  0
 27 32  1  0  0  0  0
 28 29  2  0  0  0  0
 29 30  2  0  0  0  0
 30 36  1  0  0  0  0
 31 30  1  0  0  0  0
 32 31  2  0  0  0  0
 33 28  1  0  0  0  0
 33 32  1  0  0  0  0
 34 35  1  0  0  0  0
 35 28  1  0  0  0  0
 36 37  1  0  0  0  0
M  END
>  <minimizedAffinity>
-8.99713612

$$$$
