
 OpenBabel12271914493D

 22 23  0  0  1  0  0  0  0  0999 V2000
  -13.4930  -26.3710   -9.7400 C   0  0  2  0  0  0  0  0  0  0  0  0
  -14.6670  -25.3440   -9.7590 C   0  0  2  0  0  0  0  0  0  0  0  0
  -15.4880  -25.6930   -8.5850 O   0  0  0  0  0  0  0  0  0  0  0  0
  -14.4990  -26.1640   -7.6580 C   0  0  2  0  0  0  0  0  0  0  0  0
  -13.6820  -27.1570   -8.4680 C   0  0  0  0  0  0  0  0  0  0  0  0
  -15.1620  -26.7190   -6.4260 C   0  0  0  0  0  0  0  0  0  0  0  0
  -14.5130  -27.5720   -5.5260 C   0  0  0  0  0  0  0  0  0  0  0  0
  -15.1510  -28.0230   -4.3940 C   0  0  0  0  0  0  0  0  0  0  0  0
  -14.4740  -28.9440   -3.4300 C   0  0  0  0  0  0  0  0  0  0  0  0
  -16.4680  -27.6020   -4.2110 C   0  0  0  0  0  0  0  0  0  0  0  0
  -17.1600  -26.7780   -5.0070 N   0  0  0  0  0  0  0  0  0  0  0  0
  -16.4720  -26.3720   -6.1130 C   0  0  0  0  0  0  0  0  0  0  0  0
  -17.1340  -28.0240   -3.1100 O   0  0  0  0  0  0  0  0  0  0  0  0
  -17.9470  -27.4590   -3.0890 H   0  0  0  0  0  0  0  0  0  0  0  0
  -12.2160  -25.6930   -9.5830 O   0  0  0  0  0  0  0  0  0  0  0  0
  -11.5450  -26.3730   -9.6450 H   0  0  0  0  0  0  0  0  0  0  0  0
  -15.4660  -25.3570  -11.0430 C   0  0  0  0  0  0  0  0  0  0  0  0
  -16.7250  -25.9350  -10.8680 O   0  0  0  0  0  0  0  0  0  0  0  0
  -16.9310  -27.4310  -11.4950 P   0  0  0  0  0  0  0  0  0  0  0  0
  -16.7710  -28.3190  -10.2020 O   0  0  0  0  0  0  0  0  0  0  0  0
  -18.3260  -27.3780  -12.0560 O   0  0  0  0  0  0  0  0  0  0  0  0
  -15.7850  -27.5800  -12.4600 O   0  0  0  0  0  0  0  0  0  0  0  0
  1 15  1  1  0  0  0
  1  5  1  0  0  0  0
  2 17  1  6  0  0  0
  2  1  1  0  0  0  0
  2  3  1  0  0  0  0
  3  4  1  0  0  0  0
  4  6  1  1  0  0  0
  5  4  1  0  0  0  0
  6 12  2  0  0  0  0
  6  7  1  0  0  0  0
  7  8  2  0  0  0  0
  8 10  1  0  0  0  0
  8  9  1  0  0  0  0
 10 13  1  0  0  0  0
 11 10  2  0  0  0  0
 12 11  1  0  0  0  0
 13 14  1  0  0  0  0
 16 15  1  0  0  0  0
 17 18  1  0  0  0  0
 19 18  1  0  0  0  0
 19 20  1  0  0  0  0
 21 19  1  0  0  0  0
 22 19  2  0  0  0  0
M  END
>  <minimizedAffinity>
-7.86208391

$$$$

 OpenBabel12271914493D

 22 23  0  0  1  0  0  0  0  0999 V2000
  -13.1750  -26.2290   -9.9120 C   0  0  2  0  0  0  0  0  0  0  0  0
  -14.4400  -25.3540  -10.1730 C   0  0  2  0  0  0  0  0  0  0  0  0
  -15.3550  -25.6790   -9.0630 O   0  0  0  0  0  0  0  0  0  0  0  0
  -14.4410  -25.9370   -7.9880 C   0  0  2  0  0  0  0  0  0  0  0  0
  -13.4320  -26.9010   -8.5880 C   0  0  0  0  0  0  0  0  0  0  0  0
  -15.1840  -26.4400   -6.7800 C   0  0  0  0  0  0  0  0  0  0  0  0
  -14.6260  -27.3250   -5.8500 C   0  0  0  0  0  0  0  0  0  0  0  0
  -15.3350  -27.7270   -4.7430 C   0  0  0  0  0  0  0  0  0  0  0  0
  -14.7550  -28.6810   -3.7480 C   0  0  0  0  0  0  0  0  0  0  0  0
  -16.6290  -27.2240   -4.6150 C   0  0  0  0  0  0  0  0  0  0  0  0
  -17.2370  -26.3660   -5.4420 N   0  0  0  0  0  0  0  0  0  0  0  0
  -16.4820  -26.0120   -6.5220 C   0  0  0  0  0  0  0  0  0  0  0  0
  -17.3630  -27.5970   -3.5400 O   0  0  0  0  0  0  0  0  0  0  0  0
  -18.1400  -26.9830   -3.5530 H   0  0  0  0  0  0  0  0  0  0  0  0
  -12.0060  -25.3930   -9.6950 O   0  0  0  0  0  0  0  0  0  0  0  0
  -11.2640  -25.9920   -9.6070 H   0  0  0  0  0  0  0  0  0  0  0  0
  -15.0730  -25.5880  -11.5260 C   0  0  0  0  0  0  0  0  0  0  0  0
  -14.6170  -26.7670  -12.1190 O   0  0  0  0  0  0  0  0  0  0  0  0
  -14.2510  -26.6860  -13.7110 P   0  0  0  0  0  0  0  0  0  0  0  0
  -15.6600  -26.3290  -14.3210 O   0  0  0  0  0  0  0  0  0  0  0  0
  -13.2350  -25.5780  -13.7730 O   0  0  0  0  0  0  0  0  0  0  0  0
  -13.7970  -28.0820  -14.0480 O   0  0  0  0  0  0  0  0  0  0  0  0
  1 15  1  1  0  0  0
  1  5  1  0  0  0  0
  2 17  1  6  0  0  0
  2  1  1  0  0  0  0
  2  3  1  0  0  0  0
  3  4  1  0  0  0  0
  4  6  1  1  0  0  0
  5  4  1  0  0  0  0
  6 12  2  0  0  0  0
  6  7  1  0  0  0  0
  7  8  2  0  0  0  0
  8 10  1  0  0  0  0
  8  9  1  0  0  0  0
 10 13  1  0  0  0  0
 11 10  2  0  0  0  0
 12 11  1  0  0  0  0
 14 13  1  0  0  0  0
 15 16  1  0  0  0  0
 18 17  1  0  0  0  0
 19 18  1  0  0  0  0
 20 19  2  0  0  0  0
 21 19  1  0  0  0  0
 22 19  1  0  0  0  0
M  END
>  <minimizedAffinity>
-7.75145483

$$$$

 OpenBabel12271914493D

 22 23  0  0  1  0  0  0  0  0999 V2000
  -13.3570  -26.3660   -9.7760 C   0  0  2  0  0  0  0  0  0  0  0  0
  -14.5310  -25.3520   -9.9470 C   0  0  2  0  0  0  0  0  0  0  0  0
  -15.4320  -25.6280   -8.8130 O   0  0  0  0  0  0  0  0  0  0  0  0
  -14.5100  -26.0280   -7.7890 C   0  0  2  0  0  0  0  0  0  0  0  0
  -13.6330  -27.0650   -8.4700 C   0  0  0  0  0  0  0  0  0  0  0  0
  -15.2560  -26.5030   -6.5720 C   0  0  0  0  0  0  0  0  0  0  0  0
  -16.5700  -26.1190   -6.2790 C   0  0  0  0  0  0  0  0  0  0  0  0
  -17.2200  -26.6100   -5.1720 C   0  0  0  0  0  0  0  0  0  0  0  0
  -18.6200  -26.2000   -4.8420 C   0  0  0  0  0  0  0  0  0  0  0  0
  -16.4970  -27.4850   -4.3610 C   0  0  0  0  0  0  0  0  0  0  0  0
  -15.2480  -27.9170   -4.5690 N   0  0  0  0  0  0  0  0  0  0  0  0
  -14.6580  -27.3880   -5.6800 C   0  0  0  0  0  0  0  0  0  0  0  0
  -17.1000  -27.9900   -3.2580 O   0  0  0  0  0  0  0  0  0  0  0  0
  -16.4910  -28.7130   -2.9620 H   0  0  0  0  0  0  0  0  0  0  0  0
  -12.0980  -25.6680   -9.5750 O   0  0  0  0  0  0  0  0  0  0  0  0
  -11.4210  -26.3450   -9.5440 H   0  0  0  0  0  0  0  0  0  0  0  0
  -15.2360  -25.4580  -11.2800 C   0  0  0  0  0  0  0  0  0  0  0  0
  -15.2920  -26.7760  -11.7380 O   0  0  0  0  0  0  0  0  0  0  0  0
  -16.7410  -27.5250  -11.6240 P   0  0  0  0  0  0  0  0  0  0  0  0
  -16.6990  -28.4470  -12.9020 O   0  0  0  0  0  0  0  0  0  0  0  0
  -16.6460  -28.2570  -10.3130 O   0  0  0  0  0  0  0  0  0  0  0  0
  -17.7380  -26.4020  -11.7370 O   0  0  0  0  0  0  0  0  0  0  0  0
  1 15  1  1  0  0  0
  1  5  1  0  0  0  0
  2 17  1  6  0  0  0
  2  1  1  0  0  0  0
  2  3  1  0  0  0  0
  3  4  1  0  0  0  0
  4  6  1  1  0  0  0
  5  4  1  0  0  0  0
  6  7  1  0  0  0  0
  6 12  2  0  0  0  0
  7  8  2  0  0  0  0
  8  9  1  0  0  0  0
  8 10  1  0  0  0  0
 10 13  1  0  0  0  0
 11 10  2  0  0  0  0
 12 11  1  0  0  0  0
 13 14  1  0  0  0  0
 15 16  1  0  0  0  0
 18 19  1  0  0  0  0
 18 17  1  0  0  0  0
 19 21  1  0  0  0  0
 20 19  2  0  0  0  0
 22 19  1  0  0  0  0
M  END
>  <minimizedAffinity>
-7.59516239

$$$$

 OpenBabel12271914493D

 22 23  0  0  1  0  0  0  0  0999 V2000
  -19.4990  -25.5110   -6.2140 C   0  0  2  0  0  0  0  0  0  0  0  0
  -19.7670  -26.4650   -7.4190 C   0  0  2  0  0  0  0  0  0  0  0  0
  -18.5030  -26.4720   -8.1790 O   0  0  0  0  0  0  0  0  0  0  0  0
  -17.5280  -26.3170   -7.1380 C   0  0  2  0  0  0  0  0  0  0  0  0
  -18.0430  -25.1410   -6.3250 C   0  0  0  0  0  0  0  0  0  0  0  0
  -16.1550  -26.1490   -7.7300 C   0  0  0  0  0  0  0  0  0  0  0  0
  -15.9350  -25.7630   -9.0580 C   0  0  0  0  0  0  0  0  0  0  0  0
  -14.6590  -25.5880   -9.5410 C   0  0  0  0  0  0  0  0  0  0  0  0
  -14.4090  -25.1870  -10.9600 C   0  0  0  0  0  0  0  0  0  0  0  0
  -13.6150  -25.8330   -8.6490 C   0  0  0  0  0  0  0  0  0  0  0  0
  -13.7310  -26.1880   -7.3650 N   0  0  0  0  0  0  0  0  0  0  0  0
  -15.0210  -26.3510   -6.9500 C   0  0  0  0  0  0  0  0  0  0  0  0
  -12.3430  -25.6740   -9.0850 O   0  0  0  0  0  0  0  0  0  0  0  0
  -11.8000  -25.7040   -8.2570 H   0  0  0  0  0  0  0  0  0  0  0  0
  -19.6160  -26.2260   -4.9540 O   0  0  0  0  0  0  0  0  0  0  0  0
  -19.5050  -25.5700   -4.2650 H   0  0  0  0  0  0  0  0  0  0  0  0
  -20.9460  -26.0530   -8.2710 C   0  0  0  0  0  0  0  0  0  0  0  0
  -21.7100  -25.0570   -7.6590 O   0  0  0  0  0  0  0  0  0  0  0  0
  -23.3340  -25.2390   -7.7300 P   0  0  0  0  0  0  0  0  0  0  0  0
  -23.7180  -24.0790   -8.7270 O   0  0  0  0  0  0  0  0  0  0  0  0
  -23.4990  -26.6280   -8.2830 O   0  0  0  0  0  0  0  0  0  0  0  0
  -23.7880  -24.9800   -6.3180 O   0  0  0  0  0  0  0  0  0  0  0  0
  1 15  1  1  0  0  0
  2 17  1  6  0  0  0
  2  1  1  0  0  0  0
  3  2  1  0  0  0  0
  3  4  1  0  0  0  0
  4  6  1  6  0  0  0
  4  5  1  0  0  0  0
  5  1  1  0  0  0  0
  6 12  2  0  0  0  0
  7  6  1  0  0  0  0
  8  7  2  0  0  0  0
  8 10  1  0  0  0  0
  9  8  1  0  0  0  0
 10 11  2  0  0  0  0
 11 12  1  0  0  0  0
 13 10  1  0  0  0  0
 13 14  1  0  0  0  0
 15 16  1  0  0  0  0
 17 18  1  0  0  0  0
 19 18  1  0  0  0  0
 19 22  1  0  0  0  0
 20 19  2  0  0  0  0
 21 19  1  0  0  0  0
M  END
>  <minimizedAffinity>
-7.3222661

$$$$

 OpenBabel12271914493D

 22 23  0  0  1  0  0  0  0  0999 V2000
  -13.7270  -26.6030   -9.2670 C   0  0  2  0  0  0  0  0  0  0  0  0
  -14.5080  -25.3890   -9.8570 C   0  0  2  0  0  0  0  0  0  0  0  0
  -15.7690  -25.3470   -9.0930 O   0  0  0  0  0  0  0  0  0  0  0  0
  -15.3540  -25.8240   -7.8050 C   0  0  2  0  0  0  0  0  0  0  0  0
  -14.5710  -27.0890   -8.1170 C   0  0  0  0  0  0  0  0  0  0  0  0
  -16.5460  -26.0010   -6.9050 C   0  0  0  0  0  0  0  0  0  0  0  0
  -17.8410  -25.6060   -7.2610 C   0  0  0  0  0  0  0  0  0  0  0  0
  -18.9040  -25.8220   -6.4160 C   0  0  0  0  0  0  0  0  0  0  0  0
  -20.2900  -25.3950   -6.7790 C   0  0  0  0  0  0  0  0  0  0  0  0
  -18.6160  -26.4330   -5.1960 C   0  0  0  0  0  0  0  0  0  0  0  0
  -17.4170  -26.8560   -4.7790 N   0  0  0  0  0  0  0  0  0  0  0  0
  -16.4060  -26.6060   -5.6600 C   0  0  0  0  0  0  0  0  0  0  0  0
  -19.6340  -26.6630   -4.3330 O   0  0  0  0  0  0  0  0  0  0  0  0
  -19.2400  -27.2630   -3.6500 H   0  0  0  0  0  0  0  0  0  0  0  0
  -12.4760  -26.1700   -8.6660 O   0  0  0  0  0  0  0  0  0  0  0  0
  -12.0260  -26.9680   -8.3870 H   0  0  0  0  0  0  0  0  0  0  0  0
  -14.7430  -25.4810  -11.3480 C   0  0  0  0  0  0  0  0  0  0  0  0
  -13.8470  -26.3580  -11.9630 O   0  0  0  0  0  0  0  0  0  0  0  0
  -14.0560  -26.6030  -13.5670 P   0  0  0  0  0  0  0  0  0  0  0  0
  -15.6140  -26.4000  -13.6980 O   0  0  0  0  0  0  0  0  0  0  0  0
  -13.2220  -25.5170  -14.1910 O   0  0  0  0  0  0  0  0  0  0  0  0
  -13.6260  -28.0320  -13.7720 O   0  0  0  0  0  0  0  0  0  0  0  0
  1 15  1  1  0  0  0
  1  5  1  0  0  0  0
  2 17  1  6  0  0  0
  2  1  1  0  0  0  0
  2  3  1  0  0  0  0
  3  4  1  0  0  0  0
  4  6  1  1  0  0  0
  5  4  1  0  0  0  0
  6 12  2  0  0  0  0
  7  6  1  0  0  0  0
  7  8  2  0  0  0  0
  8 10  1  0  0  0  0
  9  8  1  0  0  0  0
 10 11  2  0  0  0  0
 10 13  1  0  0  0  0
 12 11  1  0  0  0  0
 13 14  1  0  0  0  0
 15 16  1  0  0  0  0
 18 17  1  0  0  0  0
 19 18  1  0  0  0  0
 20 19  1  0  0  0  0
 21 19  2  0  0  0  0
 22 19  1  0  0  0  0
M  END
>  <minimizedAffinity>
-7.08929634

$$$$

 OpenBabel12271914493D

 22 23  0  0  1  0  0  0  0  0999 V2000
  -26.6740  -26.9370   -5.1990 C   0  0  2  0  0  0  0  0  0  0  0  0
  -25.2160  -26.3830   -5.1610 C   0  0  2  0  0  0  0  0  0  0  0  0
  -25.2340  -25.3550   -4.1040 O   0  0  0  0  0  0  0  0  0  0  0  0
  -26.1960  -25.8890   -3.1830 C   0  0  2  0  0  0  0  0  0  0  0  0
  -27.3830  -26.2500   -4.0610 C   0  0  0  0  0  0  0  0  0  0  0  0
  -26.4740  -24.8980   -2.0850 C   0  0  0  0  0  0  0  0  0  0  0  0
  -27.6710  -24.1800   -1.9870 C   0  0  0  0  0  0  0  0  0  0  0  0
  -27.8920  -23.3120   -0.9440 C   0  0  0  0  0  0  0  0  0  0  0  0
  -29.1610  -22.5290   -0.8330 C   0  0  0  0  0  0  0  0  0  0  0  0
  -26.8590  -23.1780   -0.0160 C   0  0  0  0  0  0  0  0  0  0  0  0
  -25.6920  -23.8320   -0.0210 N   0  0  0  0  0  0  0  0  0  0  0  0
  -25.5350  -24.6730   -1.0840 C   0  0  0  0  0  0  0  0  0  0  0  0
  -27.0340  -22.3310    1.0260 O   0  0  0  0  0  0  0  0  0  0  0  0
  -26.2850  -22.5450    1.6380 H   0  0  0  0  0  0  0  0  0  0  0  0
  -26.6970  -28.3520   -4.8640 O   0  0  0  0  0  0  0  0  0  0  0  0
  -27.6060  -28.6340   -4.9700 H   0  0  0  0  0  0  0  0  0  0  0  0
  -24.7380  -25.8360   -6.4870 C   0  0  0  0  0  0  0  0  0  0  0  0
  -23.6210  -25.0110   -6.3390 O   0  0  0  0  0  0  0  0  0  0  0  0
  -22.3750  -25.2850   -7.3620 P   0  0  0  0  0  0  0  0  0  0  0  0
  -22.9860  -26.4120   -8.2790 O   0  0  0  0  0  0  0  0  0  0  0  0
  -22.1870  -23.9530   -8.0360 O   0  0  0  0  0  0  0  0  0  0  0  0
  -21.2740  -25.7850   -6.4640 O   0  0  0  0  0  0  0  0  0  0  0  0
  1  2  1  0  0  0  0
  1 15  1  1  0  0  0
  1  5  1  0  0  0  0
  2 17  1  6  0  0  0
  2  3  1  0  0  0  0
  3  4  1  0  0  0  0
  4  6  1  1  0  0  0
  5  4  1  0  0  0  0
  6  7  1  0  0  0  0
  6 12  2  0  0  0  0
  7  8  2  0  0  0  0
  8  9  1  0  0  0  0
  8 10  1  0  0  0  0
 10 13  1  0  0  0  0
 11 10  2  0  0  0  0
 12 11  1  0  0  0  0
 13 14  1  0  0  0  0
 16 15  1  0  0  0  0
 17 18  1  0  0  0  0
 19 22  1  0  0  0  0
 19 18  1  0  0  0  0
 20 19  2  0  0  0  0
 21 19  1  0  0  0  0
M  END
>  <minimizedAffinity>
-6.979702

$$$$

 OpenBabel12271914493D

 22 23  0  0  1  0  0  0  0  0999 V2000
  -21.4420  -26.3570   -8.8290 C   0  0  2  0  0  0  0  0  0  0  0  0
  -21.7380  -25.6020   -7.4970 C   0  0  2  0  0  0  0  0  0  0  0  0
  -20.5740  -25.8870   -6.6380 O   0  0  0  0  0  0  0  0  0  0  0  0
  -19.5110  -25.9800   -7.5970 C   0  0  2  0  0  0  0  0  0  0  0  0
  -20.0550  -26.9210   -8.6590 C   0  0  0  0  0  0  0  0  0  0  0  0
  -18.2390  -26.4210   -6.9260 C   0  0  0  0  0  0  0  0  0  0  0  0
  -17.0360  -26.6140   -7.6140 C   0  0  0  0  0  0  0  0  0  0  0  0
  -15.8910  -26.9840   -6.9490 C   0  0  0  0  0  0  0  0  0  0  0  0
  -14.6020  -27.2050   -7.6730 C   0  0  0  0  0  0  0  0  0  0  0  0
  -16.0040  -27.1710   -5.5710 C   0  0  0  0  0  0  0  0  0  0  0  0
  -17.1040  -26.9950   -4.8300 N   0  0  0  0  0  0  0  0  0  0  0  0
  -18.2040  -26.6350   -5.5520 C   0  0  0  0  0  0  0  0  0  0  0  0
  -14.9010  -27.5370   -4.8770 O   0  0  0  0  0  0  0  0  0  0  0  0
  -15.1620  -27.4170   -3.9290 H   0  0  0  0  0  0  0  0  0  0  0  0
  -21.3400  -25.4240   -9.9400 O   0  0  0  0  0  0  0  0  0  0  0  0
  -21.2240  -25.9580  -10.7250 H   0  0  0  0  0  0  0  0  0  0  0  0
  -23.0430  -26.0040   -6.8470 C   0  0  0  0  0  0  0  0  0  0  0  0
  -23.7100  -24.9090   -6.2950 O   0  0  0  0  0  0  0  0  0  0  0  0
  -25.1850  -25.2030   -5.6530 P   0  0  0  0  0  0  0  0  0  0  0  0
  -25.9610  -23.9000   -6.0820 O   0  0  0  0  0  0  0  0  0  0  0  0
  -25.6210  -26.4590   -6.3580 O   0  0  0  0  0  0  0  0  0  0  0  0
  -24.9260  -25.2770   -4.1710 O   0  0  0  0  0  0  0  0  0  0  0  0
  1 15  1  6  0  0  0
  1  5  1  0  0  0  0
  1  2  1  0  0  0  0
  2 17  1  1  0  0  0
  2  3  1  0  0  0  0
  4  6  1  1  0  0  0
  4  3  1  0  0  0  0
  5  4  1  0  0  0  0
  6 12  2  0  0  0  0
  7  8  2  0  0  0  0
  7  6  1  0  0  0  0
  8 10  1  0  0  0  0
  9  8  1  0  0  0  0
 10 13  1  0  0  0  0
 10 11  2  0  0  0  0
 12 11  1  0  0  0  0
 13 14  1  0  0  0  0
 16 15  1  0  0  0  0
 17 18  1  0  0  0  0
 18 19  1  0  0  0  0
 19 22  1  0  0  0  0
 20 19  1  0  0  0  0
 21 19  2  0  0  0  0
M  END
>  <minimizedAffinity>
-6.71404743

$$$$

 OpenBabel12271914493D

 22 23  0  0  1  0  0  0  0  0999 V2000
  -19.7960  -25.4710   -6.3510 C   0  0  2  0  0  0  0  0  0  0  0  0
  -20.3380  -26.2480   -7.5900 C   0  0  2  0  0  0  0  0  0  0  0  0
  -19.2420  -26.1930   -8.5750 O   0  0  0  0  0  0  0  0  0  0  0  0
  -18.0820  -26.2080   -7.7320 C   0  0  2  0  0  0  0  0  0  0  0  0
  -18.3680  -25.1350   -6.6950 C   0  0  0  0  0  0  0  0  0  0  0  0
  -16.8370  -26.0040   -8.5530 C   0  0  0  0  0  0  0  0  0  0  0  0
  -15.5460  -26.0610   -8.0150 C   0  0  0  0  0  0  0  0  0  0  0  0
  -14.4390  -25.9030   -8.8150 C   0  0  0  0  0  0  0  0  0  0  0  0
  -13.0550  -25.9490   -8.2520 C   0  0  0  0  0  0  0  0  0  0  0  0
  -14.6770  -25.6690  -10.1700 C   0  0  0  0  0  0  0  0  0  0  0  0
  -15.8700  -25.6140  -10.7720 N   0  0  0  0  0  0  0  0  0  0  0  0
  -16.9260  -25.7720   -9.9220 C   0  0  0  0  0  0  0  0  0  0  0  0
  -13.6140  -25.5060  -10.9930 O   0  0  0  0  0  0  0  0  0  0  0  0
  -14.0050  -25.5530  -11.9020 H   0  0  0  0  0  0  0  0  0  0  0  0
  -19.7130  -26.3430   -5.1910 O   0  0  0  0  0  0  0  0  0  0  0  0
  -19.4380  -25.7870   -4.4610 H   0  0  0  0  0  0  0  0  0  0  0  0
  -21.6320  -25.6910   -8.1390 C   0  0  0  0  0  0  0  0  0  0  0  0
  -22.7490  -26.2860   -7.5490 O   0  0  0  0  0  0  0  0  0  0  0  0
  -24.1290  -25.4080   -7.5550 P   0  0  0  0  0  0  0  0  0  0  0  0
  -24.1530  -24.8850   -6.0680 O   0  0  0  0  0  0  0  0  0  0  0  0
  -23.8600  -24.3530   -8.5930 O   0  0  0  0  0  0  0  0  0  0  0  0
  -25.2020  -26.4250   -7.8410 O   0  0  0  0  0  0  0  0  0  0  0  0
  1 15  1  1  0  0  0
  2 17  1  6  0  0  0
  2  1  1  0  0  0  0
  3  4  1  0  0  0  0
  3  2  1  0  0  0  0
  4  6  1  6  0  0  0
  4  5  1  0  0  0  0
  5  1  1  0  0  0  0
  6  7  1  0  0  0  0
  8  9  1  0  0  0  0
  8  7  2  0  0  0  0
 10  8  1  0  0  0  0
 11 10  2  0  0  0  0
 11 12  1  0  0  0  0
 12  6  2  0  0  0  0
 13 10  1  0  0  0  0
 14 13  1  0  0  0  0
 15 16  1  0  0  0  0
 17 18  1  0  0  0  0
 19 18  1  0  0  0  0
 19 20  1  0  0  0  0
 21 19  2  0  0  0  0
 22 19  1  0  0  0  0
M  END
>  <minimizedAffinity>
-6.66436243

$$$$

 OpenBabel12271914493D

 22 23  0  0  1  0  0  0  0  0999 V2000
  -21.4220  -25.4540   -7.2390 C   0  0  2  0  0  0  0  0  0  0  0  0
  -21.2110  -26.2000   -8.5920 C   0  0  2  0  0  0  0  0  0  0  0  0
  -19.7470  -26.2850   -8.7500 O   0  0  0  0  0  0  0  0  0  0  0  0
  -19.3070  -26.4000   -7.3890 C   0  0  2  0  0  0  0  0  0  0  0  0
  -20.0370  -25.2780   -6.6710 C   0  0  0  0  0  0  0  0  0  0  0  0
  -17.8050  -26.3480   -7.3210 C   0  0  0  0  0  0  0  0  0  0  0  0
  -17.0600  -26.9860   -6.3210 C   0  0  0  0  0  0  0  0  0  0  0  0
  -15.6860  -26.9380   -6.3240 C   0  0  0  0  0  0  0  0  0  0  0  0
  -14.8790  -27.6050   -5.2560 C   0  0  0  0  0  0  0  0  0  0  0  0
  -15.0890  -26.2120   -7.3540 C   0  0  0  0  0  0  0  0  0  0  0  0
  -15.7180  -25.5860   -8.3560 N   0  0  0  0  0  0  0  0  0  0  0  0
  -17.0780  -25.6670   -8.2920 C   0  0  0  0  0  0  0  0  0  0  0  0
  -13.7380  -26.1370   -7.3920 O   0  0  0  0  0  0  0  0  0  0  0  0
  -13.5430  -25.7580   -8.2870 H   0  0  0  0  0  0  0  0  0  0  0  0
  -22.1200  -26.3020   -6.2850 O   0  0  0  0  0  0  0  0  0  0  0  0
  -22.2700  -25.7610   -5.5100 H   0  0  0  0  0  0  0  0  0  0  0  0
  -21.8770  -25.5240   -9.7690 C   0  0  0  0  0  0  0  0  0  0  0  0
  -22.2300  -26.4380  -10.7650 O   0  0  0  0  0  0  0  0  0  0  0  0
  -21.3080  -26.4330  -12.1160 P   0  0  0  0  0  0  0  0  0  0  0  0
  -22.3850  -26.0700  -13.2080 O   0  0  0  0  0  0  0  0  0  0  0  0
  -20.2990  -25.3520  -11.8380 O   0  0  0  0  0  0  0  0  0  0  0  0
  -20.8150  -27.8520  -12.2210 O   0  0  0  0  0  0  0  0  0  0  0  0
  1  5  1  0  0  0  0
  1 15  1  1  0  0  0
  2 17  1  6  0  0  0
  2  1  1  0  0  0  0
  3  2  1  0  0  0  0
  3  4  1  0  0  0  0
  4  6  1  6  0  0  0
  4  5  1  0  0  0  0
  6  7  1  0  0  0  0
  8  7  2  0  0  0  0
  8  9  1  0  0  0  0
 10  8  1  0  0  0  0
 11 12  1  0  0  0  0
 11 10  2  0  0  0  0
 12  6  2  0  0  0  0
 13 10  1  0  0  0  0
 14 13  1  0  0  0  0
 15 16  1  0  0  0  0
 18 17  1  0  0  0  0
 19 21  1  0  0  0  0
 19 18  1  0  0  0  0
 20 19  2  0  0  0  0
 22 19  1  0  0  0  0
M  END
>  <minimizedAffinity>
-6.65463161

$$$$
