
 OpenBabel12271914383D

 25 29  0  0  1  0  0  0  0  0999 V2000
  -17.1480  -26.5410  -10.8700 C   0  0  1  0  0  0  0  0  0  0  0  0
  -17.0150  -26.0580   -9.3040 C   0  0  1  0  0  0  0  0  0  0  0  0
  -18.3470  -26.0490   -8.4900 C   0  0  0  0  0  0  0  0  0  0  0  0
  -19.5670  -26.3160   -9.1020 C   0  0  0  0  0  0  0  0  0  0  0  0
  -20.7550  -26.2290   -8.3700 C   0  0  0  0  0  0  0  0  0  0  0  0
  -21.9960  -26.4620   -8.8550 O   0  0  0  0  0  0  0  0  0  0  0  0
  -22.7520  -25.8910   -7.7060 C   0  0  0  0  0  0  0  0  0  0  0  0
  -21.9950  -25.8800   -6.4590 O   0  0  0  0  0  0  0  0  0  0  0  0
  -20.6900  -25.9080   -7.0240 C   0  0  0  0  0  0  0  0  0  0  0  0
  -19.5610  -25.6680   -6.3630 C   0  0  0  0  0  0  0  0  0  0  0  0
  -18.3680  -25.7000   -7.0800 C   0  0  0  0  0  0  0  0  0  0  0  0
  -17.0930  -25.5090   -6.3490 C   0  0  0  0  0  0  0  0  0  0  0  0
  -16.4050  -26.8640   -6.2390 C   0  0  0  0  0  0  0  0  0  0  0  0
  -15.4900  -27.1620   -7.4380 N   0  0  2  0  0  0  0  0  0  0  0  0
  -15.2650  -28.1150   -7.2840 H   0  0  0  0  0  0  0  0  0  0  0  0
  -14.1970  -26.4340   -7.3530 C   0  0  0  0  0  0  0  0  0  0  0  0
  -13.5400  -26.9070   -8.5750 C   0  0  0  0  0  0  0  0  0  0  0  0
  -14.6410  -26.7300   -9.5800 C   0  0  0  0  0  0  0  0  0  0  0  0
  -15.9610  -27.0680   -8.8660 C   0  0  2  0  0  0  0  0  0  0  0  0
  -16.5540  -28.3410   -9.4720 C   0  0  0  0  0  0  0  0  0  0  0  0
  -17.1930  -28.0300  -10.6110 C   0  0  2  0  0  0  0  0  0  0  0  0
  -18.1460  -25.9190  -11.6140 O   0  0  0  0  0  0  0  0  0  0  0  0
  -17.7590  -25.6610  -12.4500 H   0  0  0  0  0  0  0  0  0  0  0  0
  -17.7620  -29.0020  -11.3800 O   0  0  0  0  0  0  0  0  0  0  0  0
  -17.3010  -29.2210  -12.7390 C   0  0  0  0  0  0  0  0  0  0  0  0
  1 22  1  1  0  0  0
  1 21  1  0  0  0  0
  1  2  1  0  0  0  0
  2 19  1  1  0  0  0
  2  3  1  0  0  0  0
  3 11  1  0  0  0  0
  4  3  2  0  0  0  0
  4  5  1  0  0  0  0
  5  9  2  0  0  0  0
  6  5  1  0  0  0  0
  6  7  1  0  0  0  0
  7  8  1  0  0  0  0
  9  8  1  0  0  0  0
  9 10  1  0  0  0  0
 11 10  2  0  0  0  0
 11 12  1  0  0  0  0
 12 13  1  0  0  0  0
 14 19  1  6  0  0  0
 14 16  1  0  0  0  0
 14 15  1  0  0  0  0
 14 13  1  0  0  0  0
 17 16  1  0  0  0  0
 18 17  1  0  0  0  0
 19 18  1  6  0  0  0
 20 19  1  0  0  0  0
 21 24  1  6  0  0  0
 21 20  1  0  0  0  0
 23 22  1  0  0  0  0
 25 24  1  0  0  0  0
M  END
>  <minimizedAffinity>
-8.47807407

$$$$

 OpenBabel12271914383D

 25 29  0  0  1  0  0  0  0  0999 V2000
  -17.3000  -27.8870  -10.0360 C   0  0  1  0  0  0  0  0  0  0  0  0
  -15.8270  -27.4180   -9.4780 C   0  0  1  0  0  0  0  0  0  0  0  0
  -14.9110  -26.7050  -10.5220 C   0  0  0  0  0  0  0  0  0  0  0  0
  -15.2880  -26.5970  -11.8560 C   0  0  0  0  0  0  0  0  0  0  0  0
  -14.4200  -26.0200  -12.7880 C   0  0  0  0  0  0  0  0  0  0  0  0
  -14.6740  -25.8640  -14.1070 O   0  0  0  0  0  0  0  0  0  0  0  0
  -13.2850  -25.5260  -14.5230 C   0  0  0  0  0  0  0  0  0  0  0  0
  -12.4710  -24.9790  -13.4430 O   0  0  0  0  0  0  0  0  0  0  0  0
  -13.1980  -25.5320  -12.3540 C   0  0  0  0  0  0  0  0  0  0  0  0
  -12.7800  -25.5730  -11.0920 C   0  0  0  0  0  0  0  0  0  0  0  0
  -13.6050  -26.1850  -10.1520 C   0  0  0  0  0  0  0  0  0  0  0  0
  -13.1920  -26.1760   -8.7280 C   0  0  0  0  0  0  0  0  0  0  0  0
  -14.0600  -25.1620   -7.9930 C   0  0  0  0  0  0  0  0  0  0  0  0
  -15.3580  -25.7790   -7.4490 N   0  0  2  0  0  0  0  0  0  0  0  0
  -15.8540  -24.9710   -7.1560 H   0  0  0  0  0  0  0  0  0  0  0  0
  -15.1300  -26.5680   -6.2100 C   0  0  0  0  0  0  0  0  0  0  0  0
  -16.4960  -27.0070   -5.9130 C   0  0  0  0  0  0  0  0  0  0  0  0
  -16.9390  -27.5000   -7.2600 C   0  0  0  0  0  0  0  0  0  0  0  0
  -16.3100  -26.5670   -8.3100 C   0  0  2  0  0  0  0  0  0  0  0  0
  -17.4140  -25.7710   -9.0080 C   0  0  0  0  0  0  0  0  0  0  0  0
  -17.9780  -26.5380   -9.9550 C   0  0  2  0  0  0  0  0  0  0  0  0
  -17.2960  -28.6100  -11.2250 O   0  0  0  0  0  0  0  0  0  0  0  0
  -17.8720  -29.3640  -11.1010 H   0  0  0  0  0  0  0  0  0  0  0  0
  -19.0330  -26.0810  -10.6870 O   0  0  0  0  0  0  0  0  0  0  0  0
  -18.8070  -25.4190  -11.9590 C   0  0  0  0  0  0  0  0  0  0  0  0
  1 22  1  6  0  0  0
  1 21  1  0  0  0  0
  1  2  1  0  0  0  0
  2 19  1  1  0  0  0
  3 11  1  0  0  0  0
  3  2  1  0  0  0  0
  4  3  2  0  0  0  0
  5  9  2  0  0  0  0
  5  4  1  0  0  0  0
  6  5  1  0  0  0  0
  7  6  1  0  0  0  0
  7  8  1  0  0  0  0
  8  9  1  0  0  0  0
  9 10  1  0  0  0  0
 10 11  2  0  0  0  0
 11 12  1  0  0  0  0
 12 13  1  0  0  0  0
 13 14  1  0  0  0  0
 14 19  1  6  0  0  0
 14 15  1  0  0  0  0
 14 16  1  0  0  0  0
 16 17  1  0  0  0  0
 18 17  1  0  0  0  0
 19 20  1  6  0  0  0
 19 18  1  0  0  0  0
 21 24  1  1  0  0  0
 21 20  1  0  0  0  0
 22 23  1  0  0  0  0
 25 24  1  0  0  0  0
M  END
>  <minimizedAffinity>
-8.03246117

$$$$

 OpenBabel12271914383D

 25 29  0  0  1  0  0  0  0  0999 V2000
  -18.0200  -25.9740  -11.8040 C   0  0  1  0  0  0  0  0  0  0  0  0
  -16.7080  -25.6040  -10.8840 C   0  0  1  0  0  0  0  0  0  0  0  0
  -16.8860  -25.8180   -9.3480 C   0  0  0  0  0  0  0  0  0  0  0  0
  -18.1150  -26.1780   -8.8080 C   0  0  0  0  0  0  0  0  0  0  0  0
  -18.2690  -26.2910   -7.4230 C   0  0  0  0  0  0  0  0  0  0  0  0
  -19.4130  -26.6300   -6.7840 O   0  0  0  0  0  0  0  0  0  0  0  0
  -18.9770  -26.2450   -5.4130 C   0  0  0  0  0  0  0  0  0  0  0  0
  -17.5290  -26.2440   -5.2410 O   0  0  0  0  0  0  0  0  0  0  0  0
  -17.1720  -26.0720   -6.6060 C   0  0  0  0  0  0  0  0  0  0  0  0
  -15.9590  -25.7530   -7.0500 C   0  0  0  0  0  0  0  0  0  0  0  0
  -15.7900  -25.5870   -8.4220 C   0  0  0  0  0  0  0  0  0  0  0  0
  -14.4320  -25.3040   -8.9430 C   0  0  0  0  0  0  0  0  0  0  0  0
  -13.9080  -26.5730   -9.6050 C   0  0  0  0  0  0  0  0  0  0  0  0
  -14.2880  -26.6640  -11.0920 N   0  0  2  0  0  0  0  0  0  0  0  0
  -14.0170  -27.5930  -11.3090 H   0  0  0  0  0  0  0  0  0  0  0  0
  -13.4330  -25.7980  -11.9450 C   0  0  0  0  0  0  0  0  0  0  0  0
  -13.9880  -26.0910  -13.2690 C   0  0  0  0  0  0  0  0  0  0  0  0
  -15.4590  -25.9660  -12.9990 C   0  0  0  0  0  0  0  0  0  0  0  0
  -15.7050  -26.5140  -11.5820 C   0  0  2  0  0  0  0  0  0  0  0  0
  -16.5330  -27.7960  -11.6700 C   0  0  0  0  0  0  0  0  0  0  0  0
  -17.8280  -27.4740  -11.8230 C   0  0  2  0  0  0  0  0  0  0  0  0
  -19.2270  -25.4180  -11.3910 O   0  0  0  0  0  0  0  0  0  0  0  0
  -19.6510  -25.0500  -12.1660 H   0  0  0  0  0  0  0  0  0  0  0  0
  -18.7740  -28.4420  -11.9860 O   0  0  0  0  0  0  0  0  0  0  0  0
  -18.9350  -29.4810  -10.9850 C   0  0  0  0  0  0  0  0  0  0  0  0
  1 22  1  1  0  0  0
  1  2  1  0  0  0  0
  2 19  1  6  0  0  0
  2  3  1  0  0  0  0
  3  4  2  0  0  0  0
  3 11  1  0  0  0  0
  4  5  1  0  0  0  0
  5  6  1  0  0  0  0
  5  9  2  0  0  0  0
  6  7  1  0  0  0  0
  7  8  1  0  0  0  0
  9  8  1  0  0  0  0
 10  9  1  0  0  0  0
 11 10  2  0  0  0  0
 12 11  1  0  0  0  0
 13 12  1  0  0  0  0
 14 19  1  6  0  0  0
 14 13  1  0  0  0  0
 15 14  1  0  0  0  0
 16 14  1  0  0  0  0
 17 18  1  0  0  0  0
 17 16  1  0  0  0  0
 19 18  1  6  0  0  0
 20 19  1  0  0  0  0
 21 24  1  6  0  0  0
 21  1  1  0  0  0  0
 21 20  1  0  0  0  0
 23 22  1  0  0  0  0
 24 25  1  0  0  0  0
M  END
>  <minimizedAffinity>
-7.8193512

$$$$

 OpenBabel12271914383D

 25 29  0  0  1  0  0  0  0  0999 V2000
  -16.0670  -25.4080   -7.5530 C   0  0  1  0  0  0  0  0  0  0  0  0
  -17.0940  -25.3730   -8.8370 C   0  0  1  0  0  0  0  0  0  0  0  0
  -16.4340  -25.6270  -10.2290 C   0  0  0  0  0  0  0  0  0  0  0  0
  -15.0550  -25.7480  -10.3620 C   0  0  0  0  0  0  0  0  0  0  0  0
  -14.4800  -25.9010  -11.6270 C   0  0  0  0  0  0  0  0  0  0  0  0
  -13.1570  -26.0260  -11.8790 O   0  0  0  0  0  0  0  0  0  0  0  0
  -13.2310  -25.8160  -13.3520 C   0  0  0  0  0  0  0  0  0  0  0  0
  -14.5380  -26.1290  -13.9190 O   0  0  0  0  0  0  0  0  0  0  0  0
  -15.3080  -25.9620  -12.7360 C   0  0  0  0  0  0  0  0  0  0  0  0
  -16.6350  -25.8820  -12.6870 C   0  0  0  0  0  0  0  0  0  0  0  0
  -17.2300  -25.6810  -11.4440 C   0  0  0  0  0  0  0  0  0  0  0  0
  -18.7090  -25.6630  -11.3570 C   0  0  0  0  0  0  0  0  0  0  0  0
  -19.1590  -26.9760  -10.7280 C   0  0  0  0  0  0  0  0  0  0  0  0
  -19.2260  -26.9050   -9.1940 N   0  0  2  0  0  0  0  0  0  0  0  0
  -19.3720  -27.8570   -8.9580 H   0  0  0  0  0  0  0  0  0  0  0  0
  -20.4410  -26.1940   -8.7160 C   0  0  0  0  0  0  0  0  0  0  0  0
  -20.2580  -26.2910   -7.2660 C   0  0  0  0  0  0  0  0  0  0  0  0
  -18.8220  -25.8750   -7.1280 C   0  0  0  0  0  0  0  0  0  0  0  0
  -18.0720  -26.4340   -8.3490 C   0  0  2  0  0  0  0  0  0  0  0  0
  -17.0830  -27.5070   -7.8890 C   0  0  0  0  0  0  0  0  0  0  0  0
  -15.9750  -26.9110   -7.4200 C   0  0  2  0  0  0  0  0  0  0  0  0
  -14.9180  -24.6340   -7.6740 O   0  0  0  0  0  0  0  0  0  0  0  0
  -14.8180  -24.1440   -6.8570 H   0  0  0  0  0  0  0  0  0  0  0  0
  -14.9570  -27.6490   -6.8920 O   0  0  0  0  0  0  0  0  0  0  0  0
  -14.7470  -27.6800   -5.4560 C   0  0  0  0  0  0  0  0  0  0  0  0
  1 22  1  6  0  0  0
  1 21  1  0  0  0  0
  2 19  1  1  0  0  0
  2  1  1  0  0  0  0
  3  2  1  0  0  0  0
  4  3  1  0  0  0  0
  5  4  2  0  0  0  0
  6  5  1  0  0  0  0
  7  6  1  0  0  0  0
  8  7  1  0  0  0  0
  8  9  1  0  0  0  0
  9 10  2  0  0  0  0
  9  5  1  0  0  0  0
 10 11  1  0  0  0  0
 11 12  1  0  0  0  0
 11  3  2  0  0  0  0
 12 13  1  0  0  0  0
 13 14  1  0  0  0  0
 14 15  1  0  0  0  0
 14 16  1  0  0  0  0
 14 19  1  1  0  0  0
 16 17  1  0  0  0  0
 17 18  1  0  0  0  0
 19 20  1  1  0  0  0
 19 18  1  0  0  0  0
 20 21  1  0  0  0  0
 21 24  1  1  0  0  0
 22 23  1  0  0  0  0
 24 25  1  0  0  0  0
M  END
>  <minimizedAffinity>
-7.78654194

$$$$

 OpenBabel12271914383D

 25 29  0  0  1  0  0  0  0  0999 V2000
  -25.5420  -26.1520   -3.3840 C   0  0  1  0  0  0  0  0  0  0  0  0
  -26.9180  -26.2430   -2.4890 C   0  0  1  0  0  0  0  0  0  0  0  0
  -27.3930  -24.8980   -1.8540 C   0  0  0  0  0  0  0  0  0  0  0  0
  -26.6240  -23.7440   -1.9500 C   0  0  0  0  0  0  0  0  0  0  0  0
  -27.0330  -22.5700   -1.3110 C   0  0  0  0  0  0  0  0  0  0  0  0
  -26.3690  -21.3920   -1.3310 O   0  0  0  0  0  0  0  0  0  0  0  0
  -27.1380  -20.7300   -0.2400 C   0  0  0  0  0  0  0  0  0  0  0  0
  -28.4720  -21.2880   -0.0470 O   0  0  0  0  0  0  0  0  0  0  0  0
  -28.2290  -22.5700   -0.6120 C   0  0  0  0  0  0  0  0  0  0  0  0
  -29.0320  -23.6240   -0.5000 C   0  0  0  0  0  0  0  0  0  0  0  0
  -28.6240  -24.8190   -1.0870 C   0  0  0  0  0  0  0  0  0  0  0  0
  -29.5380  -25.9860   -1.0370 C   0  0  0  0  0  0  0  0  0  0  0  0
  -30.1430  -26.1690   -2.4220 C   0  0  0  0  0  0  0  0  0  0  0  0
  -29.2910  -27.0750   -3.3250 N   0  0  2  0  0  0  0  0  0  0  0  0
  -29.7340  -26.9530   -4.2040 H   0  0  0  0  0  0  0  0  0  0  0  0
  -29.4610  -28.5150   -2.9980 C   0  0  0  0  0  0  0  0  0  0  0  0
  -28.5770  -29.1250   -3.9940 C   0  0  0  0  0  0  0  0  0  0  0  0
  -27.3470  -28.2780   -3.8450 C   0  0  0  0  0  0  0  0  0  0  0  0
  -27.8210  -26.8420   -3.5600 C   0  0  2  0  0  0  0  0  0  0  0  0
  -27.4560  -25.9430   -4.7420 C   0  0  0  0  0  0  0  0  0  0  0  0
  -26.1640  -25.5880   -4.6410 C   0  0  2  0  0  0  0  0  0  0  0  0
  -24.4640  -25.5150   -2.7780 O   0  0  0  0  0  0  0  0  0  0  0  0
  -23.6940  -26.0660   -2.9150 H   0  0  0  0  0  0  0  0  0  0  0  0
  -25.5720  -24.8300   -5.6070 O   0  0  0  0  0  0  0  0  0  0  0  0
  -26.3720  -24.2390   -6.6650 C   0  0  0  0  0  0  0  0  0  0  0  0
  1 22  1  1  0  0  0
  1  2  1  0  0  0  0
  2 19  1  6  0  0  0
  2  3  1  0  0  0  0
  3 11  1  0  0  0  0
  4  3  2  0  0  0  0
  4  5  1  0  0  0  0
  5  9  2  0  0  0  0
  6  5  1  0  0  0  0
  6  7  1  0  0  0  0
  7  8  1  0  0  0  0
  9 10  1  0  0  0  0
  9  8  1  0  0  0  0
 11 12  1  0  0  0  0
 11 10  2  0  0  0  0
 13 12  1  0  0  0  0
 14 19  1  6  0  0  0
 14 16  1  0  0  0  0
 14 13  1  0  0  0  0
 15 14  1  0  0  0  0
 17 18  1  0  0  0  0
 17 16  1  0  0  0  0
 18 19  1  0  0  0  0
 19 20  1  6  0  0  0
 20 21  1  0  0  0  0
 21 24  1  6  0  0  0
 21  1  1  0  0  0  0
 23 22  1  0  0  0  0
 25 24  1  0  0  0  0
M  END
>  <minimizedAffinity>
-7.56799698

$$$$

 OpenBabel12271914383D

 25 29  0  0  1  0  0  0  0  0999 V2000
  -18.9400  -26.6570  -10.7980 C   0  0  1  0  0  0  0  0  0  0  0  0
  -17.3870  -26.1250  -10.8870 C   0  0  1  0  0  0  0  0  0  0  0  0
  -16.5140  -26.3930   -9.6200 C   0  0  0  0  0  0  0  0  0  0  0  0
  -17.0680  -26.9330   -8.4650 C   0  0  0  0  0  0  0  0  0  0  0  0
  -16.2840  -27.0940   -7.3180 C   0  0  0  0  0  0  0  0  0  0  0  0
  -16.7110  -27.6040   -6.1400 O   0  0  0  0  0  0  0  0  0  0  0  0
  -15.5350  -27.1900   -5.3250 C   0  0  0  0  0  0  0  0  0  0  0  0
  -14.3240  -26.9890   -6.1120 O   0  0  0  0  0  0  0  0  0  0  0  0
  -14.9460  -26.7400   -7.3660 C   0  0  0  0  0  0  0  0  0  0  0  0
  -14.3390  -26.2450   -8.4410 C   0  0  0  0  0  0  0  0  0  0  0  0
  -15.1080  -26.0290   -9.5820 C   0  0  0  0  0  0  0  0  0  0  0  0
  -14.4370  -25.5480  -10.8130 C   0  0  0  0  0  0  0  0  0  0  0  0
  -14.3440  -26.7170  -11.7850 C   0  0  0  0  0  0  0  0  0  0  0  0
  -15.5800  -26.8300  -12.6930 N   0  0  2  0  0  0  0  0  0  0  0  0
  -15.4260  -27.7080  -13.1290 H   0  0  0  0  0  0  0  0  0  0  0  0
  -15.5600  -25.8350  -13.7970 C   0  0  0  0  0  0  0  0  0  0  0  0
  -16.8050  -26.1760  -14.4900 C   0  0  0  0  0  0  0  0  0  0  0  0
  -17.7620  -26.2650  -13.3370 C   0  0  0  0  0  0  0  0  0  0  0  0
  -16.9860  -26.8700  -12.1540 C   0  0  2  0  0  0  0  0  0  0  0  0
  -17.5520  -28.2550  -11.8320 C   0  0  0  0  0  0  0  0  0  0  0  0
  -18.6650  -28.1140  -11.0930 C   0  0  2  0  0  0  0  0  0  0  0  0
  -19.6450  -26.2840   -9.6580 O   0  0  0  0  0  0  0  0  0  0  0  0
  -20.5000  -25.9640   -9.9440 H   0  0  0  0  0  0  0  0  0  0  0  0
  -19.3970  -29.2020  -10.7200 O   0  0  0  0  0  0  0  0  0  0  0  0
  -20.7810  -29.3280  -11.1400 C   0  0  0  0  0  0  0  0  0  0  0  0
  1 22  1  1  0  0  0
  2 19  1  6  0  0  0
  2  1  1  0  0  0  0
  2  3  1  0  0  0  0
  3 11  2  0  0  0  0
  3  4  1  0  0  0  0
  4  5  2  0  0  0  0
  5  6  1  0  0  0  0
  6  7  1  0  0  0  0
  8  7  1  0  0  0  0
  9  5  1  0  0  0  0
  9  8  1  0  0  0  0
 10  9  2  0  0  0  0
 11 10  1  0  0  0  0
 12 11  1  0  0  0  0
 13 12  1  0  0  0  0
 14 19  1  1  0  0  0
 14 13  1  0  0  0  0
 15 14  1  0  0  0  0
 16 14  1  0  0  0  0
 17 16  1  0  0  0  0
 17 18  1  0  0  0  0
 19 18  1  6  0  0  0
 19 20  1  0  0  0  0
 20 21  1  0  0  0  0
 21  1  1  0  0  0  0
 21 24  1  6  0  0  0
 23 22  1  0  0  0  0
 25 24  1  0  0  0  0
M  END
>  <minimizedAffinity>
-7.55193853

$$$$

 OpenBabel12271914383D

 25 29  0  0  1  0  0  0  0  0999 V2000
  -16.3540  -25.8120  -11.3830 C   0  0  1  0  0  0  0  0  0  0  0  0
  -16.5580  -25.7260   -9.7540 C   0  0  1  0  0  0  0  0  0  0  0  0
  -18.0150  -25.9750   -9.2480 C   0  0  0  0  0  0  0  0  0  0  0  0
  -19.0700  -26.1330  -10.1400 C   0  0  0  0  0  0  0  0  0  0  0  0
  -20.3760  -26.2800   -9.6650 C   0  0  0  0  0  0  0  0  0  0  0  0
  -21.4790  -26.4370  -10.4320 O   0  0  0  0  0  0  0  0  0  0  0  0
  -22.4840  -26.2000   -9.3590 C   0  0  0  0  0  0  0  0  0  0  0  0
  -21.9780  -26.4670   -8.0180 O   0  0  0  0  0  0  0  0  0  0  0  0
  -20.5940  -26.2990   -8.2970 C   0  0  0  0  0  0  0  0  0  0  0  0
  -19.6340  -26.1830   -7.3830 C   0  0  0  0  0  0  0  0  0  0  0  0
  -18.3290  -25.9870   -7.8300 C   0  0  0  0  0  0  0  0  0  0  0  0
  -17.2360  -25.9300   -6.8310 C   0  0  0  0  0  0  0  0  0  0  0  0
  -16.4620  -27.2400   -6.9060 C   0  0  0  0  0  0  0  0  0  0  0  0
  -15.3160  -27.1930   -7.9290 N   0  0  2  0  0  0  0  0  0  0  0  0
  -15.0380  -28.1440   -7.9600 H   0  0  0  0  0  0  0  0  0  0  0  0
  -14.1320  -26.4560   -7.4150 C   0  0  0  0  0  0  0  0  0  0  0  0
  -13.2190  -26.5830   -8.5540 C   0  0  0  0  0  0  0  0  0  0  0  0
  -14.1240  -26.2090   -9.6920 C   0  0  0  0  0  0  0  0  0  0  0  0
  -15.5190  -26.7680   -9.3600 C   0  0  2  0  0  0  0  0  0  0  0  0
  -15.8710  -27.8760  -10.3550 C   0  0  0  0  0  0  0  0  0  0  0  0
  -16.3110  -27.3190  -11.4950 C   0  0  2  0  0  0  0  0  0  0  0  0
  -17.2470  -25.0670  -12.1470 O   0  0  0  0  0  0  0  0  0  0  0  0
  -16.7350  -24.5950  -12.8030 H   0  0  0  0  0  0  0  0  0  0  0  0
  -16.6380  -28.0930  -12.5690 O   0  0  0  0  0  0  0  0  0  0  0  0
  -15.7240  -28.2060  -13.6920 C   0  0  0  0  0  0  0  0  0  0  0  0
  1 22  1  6  0  0  0
  1  2  1  0  0  0  0
  2 19  1  1  0  0  0
  2  3  1  0  0  0  0
  3 11  2  0  0  0  0
  4  5  2  0  0  0  0
  4  3  1  0  0  0  0
  5  9  1  0  0  0  0
  6  5  1  0  0  0  0
  6  7  1  0  0  0  0
  7  8  1  0  0  0  0
  9  8  1  0  0  0  0
  9 10  2  0  0  0  0
 11 10  1  0  0  0  0
 11 12  1  0  0  0  0
 13 12  1  0  0  0  0
 14 19  1  6  0  0  0
 14 16  1  0  0  0  0
 14 13  1  0  0  0  0
 15 14  1  0  0  0  0
 17 16  1  0  0  0  0
 18 19  1  0  0  0  0
 18 17  1  0  0  0  0
 19 20  1  6  0  0  0
 21 24  1  6  0  0  0
 21  1  1  0  0  0  0
 21 20  1  0  0  0  0
 23 22  1  0  0  0  0
 25 24  1  0  0  0  0
M  END
>  <minimizedAffinity>
-7.3940444

$$$$

 OpenBabel12271914383D

 25 29  0  0  1  0  0  0  0  0999 V2000
  -17.8990  -28.4440   -8.7130 C   0  0  1  0  0  0  0  0  0  0  0  0
  -16.5190  -27.8060   -9.3380 C   0  0  1  0  0  0  0  0  0  0  0  0
  -16.6220  -27.3010  -10.8120 C   0  0  0  0  0  0  0  0  0  0  0  0
  -17.7750  -27.5010  -11.5620 C   0  0  0  0  0  0  0  0  0  0  0  0
  -17.8190  -27.1070  -12.9030 C   0  0  0  0  0  0  0  0  0  0  0  0
  -18.8800  -27.2520  -13.7300 O   0  0  0  0  0  0  0  0  0  0  0  0
  -18.1620  -26.9570  -15.0010 C   0  0  0  0  0  0  0  0  0  0  0  0
  -16.9570  -26.1570  -14.8170 O   0  0  0  0  0  0  0  0  0  0  0  0
  -16.7110  -26.4870  -13.4560 C   0  0  0  0  0  0  0  0  0  0  0  0
  -15.5850  -26.2360  -12.7950 C   0  0  0  0  0  0  0  0  0  0  0  0
  -15.4970  -26.6620  -11.4720 C   0  0  0  0  0  0  0  0  0  0  0  0
  -14.2800  -26.3260  -10.6950 C   0  0  0  0  0  0  0  0  0  0  0  0
  -14.6370  -25.2120   -9.7190 C   0  0  0  0  0  0  0  0  0  0  0  0
  -15.1560  -25.7470   -8.3750 N   0  0  2  0  0  0  0  0  0  0  0  0
  -15.4810  -24.9160   -7.9430 H   0  0  0  0  0  0  0  0  0  0  0  0
  -14.0570  -26.2370   -7.5020 C   0  0  0  0  0  0  0  0  0  0  0  0
  -14.8160  -26.6560   -6.3210 C   0  0  0  0  0  0  0  0  0  0  0  0
  -15.9230  -27.4470   -6.9550 C   0  0  0  0  0  0  0  0  0  0  0  0
  -16.2830  -26.7410   -8.2740 C   0  0  2  0  0  0  0  0  0  0  0  0
  -17.6950  -26.1610   -8.1690 C   0  0  0  0  0  0  0  0  0  0  0  0
  -18.5890  -27.1380   -8.3910 C   0  0  2  0  0  0  0  0  0  0  0  0
  -18.5300  -29.4080   -9.4930 O   0  0  0  0  0  0  0  0  0  0  0  0
  -18.7520  -30.1390   -8.9180 H   0  0  0  0  0  0  0  0  0  0  0  0
  -19.9270  -26.8930   -8.2970 O   0  0  0  0  0  0  0  0  0  0  0  0
  -20.6790  -26.4890   -9.4710 C   0  0  0  0  0  0  0  0  0  0  0  0
  1 22  1  6  0  0  0
  1 21  1  0  0  0  0
  2  1  1  0  0  0  0
  2 19  1  1  0  0  0
  3  2  1  0  0  0  0
  4  3  2  0  0  0  0
  5  4  1  0  0  0  0
  6  5  1  0  0  0  0
  7  8  1  0  0  0  0
  7  6  1  0  0  0  0
  8  9  1  0  0  0  0
  9  5  2  0  0  0  0
  9 10  1  0  0  0  0
 10 11  2  0  0  0  0
 11  3  1  0  0  0  0
 11 12  1  0  0  0  0
 12 13  1  0  0  0  0
 13 14  1  0  0  0  0
 14 19  1  6  0  0  0
 14 15  1  0  0  0  0
 14 16  1  0  0  0  0
 16 17  1  0  0  0  0
 18 17  1  0  0  0  0
 19 20  1  1  0  0  0
 19 18  1  0  0  0  0
 21 24  1  1  0  0  0
 21 20  1  0  0  0  0
 22 23  1  0  0  0  0
 25 24  1  0  0  0  0
M  END
>  <minimizedAffinity>
-7.37260199

$$$$

 OpenBabel12271914383D

 25 29  0  0  1  0  0  0  0  0999 V2000
  -20.1190  -27.8090  -10.7530 C   0  0  1  0  0  0  0  0  0  0  0  0
  -20.2800  -27.2230   -9.2260 C   0  0  1  0  0  0  0  0  0  0  0  0
  -19.0340  -26.4700   -8.6620 C   0  0  0  0  0  0  0  0  0  0  0  0
  -17.8410  -26.4190   -9.3730 C   0  0  0  0  0  0  0  0  0  0  0  0
  -16.7160  -25.8040   -8.8170 C   0  0  0  0  0  0  0  0  0  0  0  0
  -15.5050  -25.6960   -9.4110 O   0  0  0  0  0  0  0  0  0  0  0  0
  -14.7460  -25.2680   -8.2020 C   0  0  0  0  0  0  0  0  0  0  0  0
  -15.5800  -24.6410   -7.1840 O   0  0  0  0  0  0  0  0  0  0  0  0
  -16.8220  -25.2190   -7.5660 C   0  0  0  0  0  0  0  0  0  0  0  0
  -17.9350  -25.2010   -6.8380 C   0  0  0  0  0  0  0  0  0  0  0  0
  -19.0570  -25.8500   -7.3480 C   0  0  0  0  0  0  0  0  0  0  0  0
  -20.3270  -25.7790   -6.5880 C   0  0  0  0  0  0  0  0  0  0  0  0
  -21.2560  -24.8130   -7.3130 C   0  0  0  0  0  0  0  0  0  0  0  0
  -22.1170  -25.5090   -8.3800 N   0  0  2  0  0  0  0  0  0  0  0  0
  -22.5230  -24.7330   -8.8440 H   0  0  0  0  0  0  0  0  0  0  0  0
  -23.2590  -26.2510   -7.7850 C   0  0  0  0  0  0  0  0  0  0  0  0
  -23.8960  -26.7800   -8.9940 C   0  0  0  0  0  0  0  0  0  0  0  0
  -22.7100  -27.3340   -9.7270 C   0  0  0  0  0  0  0  0  0  0  0  0
  -21.5300  -26.3830   -9.4580 C   0  0  2  0  0  0  0  0  0  0  0  0
  -21.1350  -25.6840  -10.7600 C   0  0  0  0  0  0  0  0  0  0  0  0
  -20.3660  -26.5110  -11.4870 C   0  0  2  0  0  0  0  0  0  0  0  0
  -18.9710  -28.5570  -10.9980 O   0  0  0  0  0  0  0  0  0  0  0  0
  -19.2410  -29.3480  -11.4650 H   0  0  0  0  0  0  0  0  0  0  0  0
  -19.9270  -26.1470  -12.7250 O   0  0  0  0  0  0  0  0  0  0  0  0
  -18.5740  -25.6520  -12.9030 C   0  0  0  0  0  0  0  0  0  0  0  0
  1 22  1  1  0  0  0
  1  2  1  0  0  0  0
  2 19  1  6  0  0  0
  2  3  1  0  0  0  0
  3 11  2  0  0  0  0
  4  5  2  0  0  0  0
  4  3  1  0  0  0  0
  5  9  1  0  0  0  0
  6  5  1  0  0  0  0
  6  7  1  0  0  0  0
  7  8  1  0  0  0  0
  9  8  1  0  0  0  0
  9 10  2  0  0  0  0
 11 10  1  0  0  0  0
 11 12  1  0  0  0  0
 13 12  1  0  0  0  0
 14 19  1  6  0  0  0
 14 16  1  0  0  0  0
 14 13  1  0  0  0  0
 15 14  1  0  0  0  0
 17 16  1  0  0  0  0
 18 19  1  0  0  0  0
 18 17  1  0  0  0  0
 19 20  1  6  0  0  0
 21 24  1  6  0  0  0
 21 20  1  0  0  0  0
 21  1  1  0  0  0  0
 23 22  1  0  0  0  0
 25 24  1  0  0  0  0
M  END
>  <minimizedAffinity>
-7.24060774

$$$$
