
 OpenBabel12271914393D

 42 46  0  0  1  0  0  0  0  0999 V2000
  -17.8220  -28.0750   -9.9420 C   0  0  1  0  0  0  0  0  0  0  0  0
  -16.7260  -27.6980   -8.8200 C   0  0  1  0  0  0  0  0  0  0  0  0
  -15.3150  -27.0780   -9.2080 C   0  0  0  0  0  0  0  0  0  0  0  0
  -15.0640  -26.8790  -10.5580 C   0  0  0  0  0  0  0  0  0  0  0  0
  -13.8970  -26.2260  -10.8690 C   0  0  0  0  0  0  0  0  0  0  0  0
  -13.4930  -25.9220  -12.2110 O   0  0  0  0  0  0  0  0  0  0  0  0
  -12.3760  -25.0860  -11.7910 C   0  0  0  0  0  0  0  0  0  0  0  0
  -11.8970  -25.1180  -10.4480 O   0  0  0  0  0  0  0  0  0  0  0  0
  -12.9780  -25.7750   -9.9280 C   0  0  0  0  0  0  0  0  0  0  0  0
  -13.1820  -25.9550   -8.5580 C   0  0  0  0  0  0  0  0  0  0  0  0
  -14.3720  -26.6120   -8.2110 C   0  0  0  0  0  0  0  0  0  0  0  0
  -14.6180  -26.6840   -6.7080 C   0  0  0  0  0  0  0  0  0  0  0  0
  -16.0330  -26.4090   -6.1840 C   0  0  0  0  0  0  0  0  0  0  0  0
  -16.8770  -25.6540   -7.1610 N   0  0  2  0  0  0  0  0  0  0  0  0
  -16.3040  -25.0250   -7.7410 H   0  0  0  0  0  0  0  0  0  0  0  0
  -17.9690  -24.8780   -6.4740 C   0  0  0  0  0  0  0  0  0  0  0  0
  -19.0030  -25.9900   -6.1960 C   0  0  0  0  0  0  0  0  0  0  0  0
  -18.7720  -27.0950   -7.2200 C   0  0  0  0  0  0  0  0  0  0  0  0
  -17.6290  -26.5420   -8.1050 C   0  0  2  0  0  0  0  0  0  0  0  0
  -18.2000  -25.8450   -9.3620 C   0  0  0  0  0  0  0  0  0  0  0  0
  -18.2420  -26.6680  -10.4460 C   0  0  2  0  0  0  0  0  0  0  0  0
  -19.0270  -26.3740  -11.5300 O   0  0  0  0  0  0  0  0  0  0  0  0
  -18.5320  -25.3040  -12.2800 C   0  0  0  0  0  0  0  0  0  0  0  0
  -17.3490  -29.0160  -10.9610 O   0  0  0  0  0  0  0  0  0  0  0  0
  -18.3850  -29.3910  -11.8160 C   0  0  0  0  0  0  0  0  0  0  0  0
  -19.4520  -29.7700  -11.3480 O   0  0  0  0  0  0  0  0  0  0  0  0
  -18.0730  -29.2040  -13.2980 C   0  0  2  0  0  0  0  0  0  0  0  0
  -19.1040  -28.4390  -13.8980 O   0  0  0  0  0  0  0  0  0  0  0  0
  -19.9390  -28.7760  -13.6230 H   0  0  0  0  0  0  0  0  0  0  0  0
  -17.9520  -30.4600  -14.1580 C   0  0  0  0  0  0  0  0  0  0  0  0
  -19.2670  -30.6210  -14.8830 C   0  0  0  0  0  0  0  0  0  0  0  0
  -20.3090  -30.8750  -14.3410 O   0  0  0  0  0  0  0  0  0  0  0  0
  -19.1190  -30.2750  -16.1930 O   0  0  0  0  0  0  0  0  0  0  0  0
  -17.9560  -30.7980  -16.8070 C   0  0  0  0  0  0  0  0  0  0  0  0
  -16.7470  -28.3510  -13.4160 C   0  0  0  0  0  0  0  0  0  0  0  0
  -15.7850  -28.9610  -14.4190 C   0  0  0  0  0  0  0  0  0  0  0  0
  -15.1370  -28.0130  -15.3930 C   0  0  0  0  0  0  0  0  0  0  0  0
  -13.6190  -27.9430  -15.3760 C   0  0  0  0  0  0  0  0  0  0  0  0
  -13.0200  -28.0950  -16.7670 C   0  0  0  0  0  0  0  0  0  0  0  0
  -13.0770  -29.1390  -14.5310 C   0  0  0  0  0  0  0  0  0  0  0  0
  -13.1840  -26.7410  -14.8000 O   0  0  0  0  0  0  0  0  0  0  0  0
  -13.7420  -26.4710  -14.1010 H   0  0  0  0  0  0  0  0  0  0  0  0
  1 24  1  6  0  0  0
  1  2  1  0  0  0  0
  2 19  1  1  0  0  0
  3  2  1  0  0  0  0
  3 11  2  0  0  0  0
  4  3  1  0  0  0  0
  5  4  2  0  0  0  0
  5  9  1  0  0  0  0
  6  7  1  0  0  0  0
  6  5  1  0  0  0  0
  7  8  1  0  0  0  0
  8  9  1  0  0  0  0
  9 10  2  0  0  0  0
 10 11  1  0  0  0  0
 11 12  1  0  0  0  0
 12 13  1  0  0  0  0
 14 19  1  6  0  0  0
 14 16  1  0  0  0  0
 14 13  1  0  0  0  0
 15 14  1  0  0  0  0
 16 17  1  0  0  0  0
 18 17  1  0  0  0  0
 19 20  1  6  0  0  0
 19 18  1  0  0  0  0
 21 22  1  1  0  0  0
 21  1  1  0  0  0  0
 21 20  1  0  0  0  0
 23 22  1  0  0  0  0
 25 26  2  0  0  0  0
 25 24  1  0  0  0  0
 27 30  1  6  0  0  0
 27 25  1  0  0  0  0
 28 29  1  0  0  0  0
 28 27  1  0  0  0  0
 31 32  2  0  0  0  0
 31 30  1  0  0  0  0
 33 31  1  0  0  0  0
 34 33  1  0  0  0  0
 35 27  1  0  0  0  0
 36 35  1  0  0  0  0
 37 38  1  0  0  0  0
 37 36  1  0  0  0  0
 38 41  1  0  0  0  0
 38 40  1  0  0  0  0
 39 38  1  0  0  0  0
 41 42  1  0  0  0  0
M  END
>  <minimizedAffinity>
-8.13236427

$$$$

 OpenBabel12271914393D

 42 46  0  0  1  0  0  0  0  0999 V2000
  -18.4210  -27.0130  -12.3330 C   0  0  1  0  0  0  0  0  0  0  0  0
  -17.1190  -26.5850  -13.1820 C   0  0  1  0  0  0  0  0  0  0  0  0
  -15.7620  -26.1600  -12.4700 C   0  0  0  0  0  0  0  0  0  0  0  0
  -15.7500  -26.1660  -11.0830 C   0  0  0  0  0  0  0  0  0  0  0  0
  -14.5380  -25.9230  -10.4860 C   0  0  0  0  0  0  0  0  0  0  0  0
  -14.3440  -25.9120   -9.0650 O   0  0  0  0  0  0  0  0  0  0  0  0
  -12.8910  -25.8310   -9.1640 C   0  0  0  0  0  0  0  0  0  0  0  0
  -12.2570  -25.4840  -10.3930 O   0  0  0  0  0  0  0  0  0  0  0  0
  -13.3600  -25.6680  -11.1800 C   0  0  0  0  0  0  0  0  0  0  0  0
  -13.3210  -25.6450  -12.5760 C   0  0  0  0  0  0  0  0  0  0  0  0
  -14.5460  -25.9000  -13.2130 C   0  0  0  0  0  0  0  0  0  0  0  0
  -14.4400  -25.9860  -14.7320 C   0  0  0  0  0  0  0  0  0  0  0  0
  -15.2070  -27.0980  -15.4570 C   0  0  0  0  0  0  0  0  0  0  0  0
  -15.5800  -28.2310  -14.5530 N   0  0  2  0  0  0  0  0  0  0  0  0
  -14.8860  -28.3510  -13.8020 H   0  0  0  0  0  0  0  0  0  0  0  0
  -15.7560  -29.5180  -15.3130 C   0  0  0  0  0  0  0  0  0  0  0  0
  -17.1630  -29.3250  -15.9160 C   0  0  0  0  0  0  0  0  0  0  0  0
  -17.9120  -28.3420  -15.0240 C   0  0  0  0  0  0  0  0  0  0  0  0
  -16.9080  -28.0430  -13.8850 C   0  0  2  0  0  0  0  0  0  0  0  0
  -17.1750  -28.9590  -12.6680 C   0  0  0  0  0  0  0  0  0  0  0  0
  -17.9630  -28.3660  -11.7280 C   0  0  2  0  0  0  0  0  0  0  0  0
  -18.6060  -29.1090  -10.7710 O   0  0  0  0  0  0  0  0  0  0  0  0
  -19.6260  -29.9030  -11.3010 C   0  0  0  0  0  0  0  0  0  0  0  0
  -18.8860  -25.9990  -11.3820 O   0  0  0  0  0  0  0  0  0  0  0  0
  -20.1670  -26.2970  -10.9180 C   0  0  0  0  0  0  0  0  0  0  0  0
  -21.0460  -26.6000  -11.7150 O   0  0  0  0  0  0  0  0  0  0  0  0
  -20.3020  -26.2800   -9.3980 C   0  0  2  0  0  0  0  0  0  0  0  0
  -20.7940  -27.5350   -8.9600 O   0  0  0  0  0  0  0  0  0  0  0  0
  -21.5200  -27.7890   -9.5030 H   0  0  0  0  0  0  0  0  0  0  0  0
  -21.2410  -25.2440   -8.7840 C   0  0  0  0  0  0  0  0  0  0  0  0
  -21.8990  -25.9020   -7.5940 C   0  0  0  0  0  0  0  0  0  0  0  0
  -21.4740  -25.8450   -6.4720 O   0  0  0  0  0  0  0  0  0  0  0  0
  -23.1080  -26.4140   -7.9580 O   0  0  0  0  0  0  0  0  0  0  0  0
  -23.7960  -25.6540   -8.9350 C   0  0  0  0  0  0  0  0  0  0  0  0
  -18.8570  -26.1170   -8.7780 C   0  0  0  0  0  0  0  0  0  0  0  0
  -18.5200  -27.2670   -7.8470 C   0  0  0  0  0  0  0  0  0  0  0  0
  -17.0630  -27.4820   -7.5400 C   0  0  0  0  0  0  0  0  0  0  0  0
  -16.4720  -26.6620   -6.4040 C   0  0  0  0  0  0  0  0  0  0  0  0
  -15.2840  -27.3540   -5.7520 C   0  0  0  0  0  0  0  0  0  0  0  0
  -17.5560  -26.5050   -5.2910 C   0  0  0  0  0  0  0  0  0  0  0  0
  -16.0920  -25.3900   -6.8570 O   0  0  0  0  0  0  0  0  0  0  0  0
  -16.6790  -25.0640   -7.5050 H   0  0  0  0  0  0  0  0  0  0  0  0
  1 21  1  0  0  0  0
  1 24  1  1  0  0  0
  2 19  1  6  0  0  0
  2  3  1  0  0  0  0
  2  1  1  0  0  0  0
  3  4  2  0  0  0  0
  4  5  1  0  0  0  0
  5  6  1  0  0  0  0
  7  6  1  0  0  0  0
  8  7  1  0  0  0  0
  9  5  2  0  0  0  0
  9  8  1  0  0  0  0
 10  9  1  0  0  0  0
 11 10  2  0  0  0  0
 11  3  1  0  0  0  0
 12 11  1  0  0  0  0
 13 12  1  0  0  0  0
 13 14  1  0  0  0  0
 14 19  1  1  0  0  0
 14 15  1  0  0  0  0
 16 14  1  0  0  0  0
 17 16  1  0  0  0  0
 17 18  1  0  0  0  0
 19 18  1  6  0  0  0
 19 20  1  0  0  0  0
 20 21  1  0  0  0  0
 21 22  1  6  0  0  0
 23 22  1  0  0  0  0
 24 25  1  0  0  0  0
 25 27  1  0  0  0  0
 26 25  2  0  0  0  0
 27 28  1  0  0  0  0
 27 30  1  1  0  0  0
 27 35  1  0  0  0  0
 29 28  1  0  0  0  0
 30 31  1  0  0  0  0
 31 32  2  0  0  0  0
 33 31  1  0  0  0  0
 34 33  1  0  0  0  0
 35 36  1  0  0  0  0
 36 37  1  0  0  0  0
 37 38  1  0  0  0  0
 38 39  1  0  0  0  0
 38 40  1  0  0  0  0
 41 38  1  0  0  0  0
 42 41  1  0  0  0  0
M  END
>  <minimizedAffinity>
-8.11417007

$$$$

 OpenBabel12271914393D

 42 46  0  0  1  0  0  0  0  0999 V2000
  -18.0470  -27.9090   -9.7880 C   0  0  1  0  0  0  0  0  0  0  0  0
  -16.8750  -27.6420   -8.7120 C   0  0  1  0  0  0  0  0  0  0  0  0
  -15.4510  -27.0870   -9.1510 C   0  0  0  0  0  0  0  0  0  0  0  0
  -15.2570  -26.8490  -10.5040 C   0  0  0  0  0  0  0  0  0  0  0  0
  -14.0720  -26.2500  -10.8510 C   0  0  0  0  0  0  0  0  0  0  0  0
  -13.7190  -25.9160  -12.2000 O   0  0  0  0  0  0  0  0  0  0  0  0
  -12.5340  -25.1620  -11.8080 C   0  0  0  0  0  0  0  0  0  0  0  0
  -11.9910  -25.2770  -10.4950 O   0  0  0  0  0  0  0  0  0  0  0  0
  -13.0810  -25.8920   -9.9430 C   0  0  0  0  0  0  0  0  0  0  0  0
  -13.2250  -26.1150   -8.5730 C   0  0  0  0  0  0  0  0  0  0  0  0
  -14.4330  -26.7180   -8.1880 C   0  0  0  0  0  0  0  0  0  0  0  0
  -14.6060  -26.8360   -6.6780 C   0  0  0  0  0  0  0  0  0  0  0  0
  -15.9740  -26.5030   -6.0690 C   0  0  0  0  0  0  0  0  0  0  0  0
  -16.8210  -25.6610   -6.9720 N   0  0  2  0  0  0  0  0  0  0  0  0
  -16.2410  -25.0430   -7.5560 H   0  0  0  0  0  0  0  0  0  0  0  0
  -17.8290  -24.8540   -6.1990 C   0  0  0  0  0  0  0  0  0  0  0  0
  -18.9110  -25.9150   -5.9080 C   0  0  0  0  0  0  0  0  0  0  0  0
  -18.7980  -26.9890   -6.9840 C   0  0  0  0  0  0  0  0  0  0  0  0
  -17.6710  -26.4660   -7.9070 C   0  0  2  0  0  0  0  0  0  0  0  0
  -18.2620  -25.6860   -9.1040 C   0  0  0  0  0  0  0  0  0  0  0  0
  -18.4070  -26.4610  -10.2150 C   0  0  2  0  0  0  0  0  0  0  0  0
  -19.2280  -26.0790  -11.2440 O   0  0  0  0  0  0  0  0  0  0  0  0
  -20.5820  -26.1340  -10.9020 C   0  0  0  0  0  0  0  0  0  0  0  0
  -17.6830  -28.8330  -10.8650 O   0  0  0  0  0  0  0  0  0  0  0  0
  -18.8140  -29.4430  -11.4050 C   0  0  0  0  0  0  0  0  0  0  0  0
  -19.6900  -29.8670  -10.6610 O   0  0  0  0  0  0  0  0  0  0  0  0
  -18.8590  -29.4410  -12.9310 C   0  0  2  0  0  0  0  0  0  0  0  0
  -19.0780  -28.1190  -13.3890 O   0  0  0  0  0  0  0  0  0  0  0  0
  -19.7750  -27.7300  -12.8890 H   0  0  0  0  0  0  0  0  0  0  0  0
  -19.9380  -30.2850  -13.6060 C   0  0  0  0  0  0  0  0  0  0  0  0
  -20.9670  -29.3230  -14.1510 C   0  0  0  0  0  0  0  0  0  0  0  0
  -21.0560  -29.0170  -15.3090 O   0  0  0  0  0  0  0  0  0  0  0  0
  -21.8590  -28.9970  -13.1740 O   0  0  0  0  0  0  0  0  0  0  0  0
  -22.6930  -27.8970  -13.4880 C   0  0  0  0  0  0  0  0  0  0  0  0
  -17.4360  -29.8770  -13.4640 C   0  0  0  0  0  0  0  0  0  0  0  0
  -16.8240  -28.8060  -14.3480 C   0  0  0  0  0  0  0  0  0  0  0  0
  -15.5120  -28.2240  -13.8930 C   0  0  0  0  0  0  0  0  0  0  0  0
  -14.4060  -28.1300  -14.9320 C   0  0  0  0  0  0  0  0  0  0  0  0
  -14.8510  -28.6420  -16.2950 C   0  0  0  0  0  0  0  0  0  0  0  0
  -13.2240  -29.0450  -14.4820 C   0  0  0  0  0  0  0  0  0  0  0  0
  -13.9470  -26.8100  -15.0470 O   0  0  0  0  0  0  0  0  0  0  0  0
  -13.9480  -26.3700  -14.2240 H   0  0  0  0  0  0  0  0  0  0  0  0
  1 24  1  6  0  0  0
  1  2  1  0  0  0  0
  2 19  1  1  0  0  0
  3  2  1  0  0  0  0
  3 11  2  0  0  0  0
  4  3  1  0  0  0  0
  5  4  2  0  0  0  0
  5  9  1  0  0  0  0
  6  7  1  0  0  0  0
  6  5  1  0  0  0  0
  7  8  1  0  0  0  0
  8  9  1  0  0  0  0
  9 10  2  0  0  0  0
 10 11  1  0  0  0  0
 11 12  1  0  0  0  0
 12 13  1  0  0  0  0
 14 19  1  6  0  0  0
 14 16  1  0  0  0  0
 14 13  1  0  0  0  0
 15 14  1  0  0  0  0
 16 17  1  0  0  0  0
 18 17  1  0  0  0  0
 19 20  1  6  0  0  0
 19 18  1  0  0  0  0
 21 22  1  1  0  0  0
 21  1  1  0  0  0  0
 21 20  1  0  0  0  0
 22 23  1  0  0  0  0
 25 24  1  0  0  0  0
 25 26  2  0  0  0  0
 27 30  1  6  0  0  0
 27 25  1  0  0  0  0
 28 27  1  0  0  0  0
 28 29  1  0  0  0  0
 31 30  1  0  0  0  0
 31 33  1  0  0  0  0
 32 31  2  0  0  0  0
 34 33  1  0  0  0  0
 35 27  1  0  0  0  0
 36 37  1  0  0  0  0
 36 35  1  0  0  0  0
 38 40  1  0  0  0  0
 38 37  1  0  0  0  0
 39 38  1  0  0  0  0
 41 38  1  0  0  0  0
 41 42  1  0  0  0  0
M  END
>  <minimizedAffinity>
-8.070961

$$$$

 OpenBabel12271914393D

 42 46  0  0  1  0  0  0  0  0999 V2000
  -17.9230  -27.9510   -9.9880 C   0  0  1  0  0  0  0  0  0  0  0  0
  -16.7740  -27.6440   -8.8980 C   0  0  1  0  0  0  0  0  0  0  0  0
  -15.3590  -27.0550   -9.3200 C   0  0  0  0  0  0  0  0  0  0  0  0
  -15.1520  -26.8230  -10.6720 C   0  0  0  0  0  0  0  0  0  0  0  0
  -13.9780  -26.1960  -11.0070 C   0  0  0  0  0  0  0  0  0  0  0  0
  -13.6140  -25.8630  -12.3540 O   0  0  0  0  0  0  0  0  0  0  0  0
  -12.4560  -25.0750  -11.9520 C   0  0  0  0  0  0  0  0  0  0  0  0
  -11.9290  -25.1640  -10.6290 O   0  0  0  0  0  0  0  0  0  0  0  0
  -13.0100  -25.8030  -10.0880 C   0  0  0  0  0  0  0  0  0  0  0  0
  -13.1690  -26.0190   -8.7180 C   0  0  0  0  0  0  0  0  0  0  0  0
  -14.3660  -26.6510   -8.3460 C   0  0  0  0  0  0  0  0  0  0  0  0
  -14.5580  -26.7610   -6.8380 C   0  0  0  0  0  0  0  0  0  0  0  0
  -15.9430  -26.4600   -6.2520 C   0  0  0  0  0  0  0  0  0  0  0  0
  -16.7990  -25.6490   -7.1740 N   0  0  2  0  0  0  0  0  0  0  0  0
  -16.2270  -25.0200   -7.7550 H   0  0  0  0  0  0  0  0  0  0  0  0
  -17.8390  -24.8620   -6.4220 C   0  0  0  0  0  0  0  0  0  0  0  0
  -18.8970  -25.9490   -6.1380 C   0  0  0  0  0  0  0  0  0  0  0  0
  -18.7390  -27.0280   -7.2030 C   0  0  0  0  0  0  0  0  0  0  0  0
  -17.6130  -26.4830   -8.1140 C   0  0  2  0  0  0  0  0  0  0  0  0
  -18.2070  -25.7300   -9.3270 C   0  0  0  0  0  0  0  0  0  0  0  0
  -18.3150  -26.5170  -10.4330 C   0  0  2  0  0  0  0  0  0  0  0  0
  -19.1310  -26.1660  -11.4770 O   0  0  0  0  0  0  0  0  0  0  0  0
  -20.4880  -26.2340  -11.1480 C   0  0  0  0  0  0  0  0  0  0  0  0
  -17.5180  -28.8740  -11.0510 O   0  0  0  0  0  0  0  0  0  0  0  0
  -18.6310  -29.4330  -11.6800 C   0  0  0  0  0  0  0  0  0  0  0  0
  -19.5830  -29.8100  -11.0080 O   0  0  0  0  0  0  0  0  0  0  0  0
  -18.5530  -29.4360  -13.2040 C   0  0  2  0  0  0  0  0  0  0  0  0
  -17.9230  -30.6290  -13.6360 O   0  0  0  0  0  0  0  0  0  0  0  0
  -17.1510  -30.7760  -13.1170 H   0  0  0  0  0  0  0  0  0  0  0  0
  -17.7760  -28.3050  -13.8740 C   0  0  0  0  0  0  0  0  0  0  0  0
  -16.6130  -28.9430  -14.5960 C   0  0  0  0  0  0  0  0  0  0  0  0
  -16.6600  -29.3420  -15.7290 O   0  0  0  0  0  0  0  0  0  0  0  0
  -15.4850  -28.8450  -13.8370 O   0  0  0  0  0  0  0  0  0  0  0  0
  -14.3180  -28.5110  -14.5640 C   0  0  0  0  0  0  0  0  0  0  0  0
  -20.0290  -29.4710  -13.7700 C   0  0  0  0  0  0  0  0  0  0  0  0
  -20.3760  -30.8390  -14.3290 C   0  0  0  0  0  0  0  0  0  0  0  0
  -20.9060  -30.8780  -15.7370 C   0  0  0  0  0  0  0  0  0  0  0  0
  -19.8800  -30.8630  -16.8580 C   0  0  0  0  0  0  0  0  0  0  0  0
  -19.6310  -29.4590  -17.3910 C   0  0  0  0  0  0  0  0  0  0  0  0
  -20.4390  -31.6950  -18.0540 C   0  0  0  0  0  0  0  0  0  0  0  0
  -18.6700  -31.4300  -16.4300 O   0  0  0  0  0  0  0  0  0  0  0  0
  -18.8110  -32.1400  -15.8410 H   0  0  0  0  0  0  0  0  0  0  0  0
  1 24  1  6  0  0  0
  1  2  1  0  0  0  0
  2 19  1  1  0  0  0
  3  2  1  0  0  0  0
  3 11  2  0  0  0  0
  4  3  1  0  0  0  0
  5  4  2  0  0  0  0
  5  9  1  0  0  0  0
  6  7  1  0  0  0  0
  6  5  1  0  0  0  0
  7  8  1  0  0  0  0
  8  9  1  0  0  0  0
  9 10  2  0  0  0  0
 10 11  1  0  0  0  0
 11 12  1  0  0  0  0
 12 13  1  0  0  0  0
 14 19  1  6  0  0  0
 14 16  1  0  0  0  0
 14 13  1  0  0  0  0
 15 14  1  0  0  0  0
 16 17  1  0  0  0  0
 18 17  1  0  0  0  0
 19 20  1  6  0  0  0
 19 18  1  0  0  0  0
 21 22  1  1  0  0  0
 21  1  1  0  0  0  0
 21 20  1  0  0  0  0
 22 23  1  0  0  0  0
 25 24  1  0  0  0  0
 25 26  2  0  0  0  0
 27 30  1  6  0  0  0
 27 25  1  0  0  0  0
 28 27  1  0  0  0  0
 28 29  1  0  0  0  0
 31 30  1  0  0  0  0
 31 33  1  0  0  0  0
 32 31  2  0  0  0  0
 34 33  1  0  0  0  0
 35 27  1  0  0  0  0
 36 35  1  0  0  0  0
 37 36  1  0  0  0  0
 38 41  1  0  0  0  0
 38 37  1  0  0  0  0
 39 38  1  0  0  0  0
 40 38  1  0  0  0  0
 41 42  1  0  0  0  0
M  END
>  <minimizedAffinity>
-7.91598558

$$$$

 OpenBabel12271914393D

 42 46  0  0  1  0  0  0  0  0999 V2000
  -18.6150  -26.6020  -11.1350 C   0  0  1  0  0  0  0  0  0  0  0  0
  -17.1250  -25.9920  -11.0340 C   0  0  1  0  0  0  0  0  0  0  0  0
  -16.2760  -26.0830   -9.6930 C   0  0  0  0  0  0  0  0  0  0  0  0
  -16.8770  -26.7050   -8.6080 C   0  0  0  0  0  0  0  0  0  0  0  0
  -16.0870  -26.8900   -7.5010 C   0  0  0  0  0  0  0  0  0  0  0  0
  -16.5420  -27.5310   -6.3020 O   0  0  0  0  0  0  0  0  0  0  0  0
  -15.2130  -27.5790   -5.7050 C   0  0  0  0  0  0  0  0  0  0  0  0
  -14.1420  -26.7970   -6.2300 O   0  0  0  0  0  0  0  0  0  0  0  0
  -14.7580  -26.4880   -7.4110 C   0  0  0  0  0  0  0  0  0  0  0  0
  -14.1100  -25.8530   -8.4720 C   0  0  0  0  0  0  0  0  0  0  0  0
  -14.8920  -25.6600   -9.6220 C   0  0  0  0  0  0  0  0  0  0  0  0
  -14.1190  -25.0750  -10.7990 C   0  0  0  0  0  0  0  0  0  0  0  0
  -14.3640  -25.6560  -12.1970 C   0  0  0  0  0  0  0  0  0  0  0  0
  -14.9740  -27.0220  -12.1580 N   0  0  2  0  0  0  0  0  0  0  0  0
  -14.6740  -27.5400  -11.3210 H   0  0  0  0  0  0  0  0  0  0  0  0
  -14.6570  -27.8100  -13.4010 C   0  0  0  0  0  0  0  0  0  0  0  0
  -15.6650  -27.2130  -14.4050 C   0  0  0  0  0  0  0  0  0  0  0  0
  -16.8310  -26.6490  -13.6010 C   0  0  0  0  0  0  0  0  0  0  0  0
  -16.4710  -27.0010  -12.1380 C   0  0  2  0  0  0  0  0  0  0  0  0
  -17.1490  -28.3250  -11.7130 C   0  0  0  0  0  0  0  0  0  0  0  0
  -18.3290  -28.1260  -11.0630 C   0  0  2  0  0  0  0  0  0  0  0  0
  -19.2450  -29.1370  -10.9290 O   0  0  0  0  0  0  0  0  0  0  0  0
  -20.1010  -29.2380  -12.0280 C   0  0  0  0  0  0  0  0  0  0  0  0
  -19.5570  -26.0700  -10.1460 O   0  0  0  0  0  0  0  0  0  0  0  0
  -20.7880  -25.7780  -10.7330 C   0  0  0  0  0  0  0  0  0  0  0  0
  -20.8530  -25.5760  -11.9390 O   0  0  0  0  0  0  0  0  0  0  0  0
  -21.9690  -25.8210   -9.7670 C   0  0  2  0  0  0  0  0  0  0  0  0
  -22.4220  -24.5010   -9.5260 O   0  0  0  0  0  0  0  0  0  0  0  0
  -21.6820  -23.9470   -9.3520 H   0  0  0  0  0  0  0  0  0  0  0  0
  -21.7280  -26.4230   -8.3850 C   0  0  0  0  0  0  0  0  0  0  0  0
  -21.8560  -25.2940   -7.3890 C   0  0  0  0  0  0  0  0  0  0  0  0
  -22.8910  -24.9630   -6.8760 O   0  0  0  0  0  0  0  0  0  0  0  0
  -20.6190  -24.8340   -7.0490 O   0  0  0  0  0  0  0  0  0  0  0  0
  -19.7450  -25.8260   -6.5450 C   0  0  0  0  0  0  0  0  0  0  0  0
  -23.1550  -26.5870  -10.4780 C   0  0  0  0  0  0  0  0  0  0  0  0
  -24.4490  -26.4520   -9.6960 C   0  0  0  0  0  0  0  0  0  0  0  0
  -24.9620  -27.6950   -9.0210 C   0  0  0  0  0  0  0  0  0  0  0  0
  -25.4820  -27.5410   -7.6010 C   0  0  0  0  0  0  0  0  0  0  0  0
  -26.5730  -28.5510   -7.2750 C   0  0  0  0  0  0  0  0  0  0  0  0
  -26.1330  -26.1290   -7.4630 C   0  0  0  0  0  0  0  0  0  0  0  0
  -24.4350  -27.6560   -6.6750 O   0  0  0  0  0  0  0  0  0  0  0  0
  -23.6430  -27.2840   -7.0000 H   0  0  0  0  0  0  0  0  0  0  0  0
  1 21  1  0  0  0  0
  1  2  1  0  0  0  0
  1 24  1  1  0  0  0
  2 19  1  6  0  0  0
  2  3  1  0  0  0  0
  3 11  2  0  0  0  0
  3  4  1  0  0  0  0
  4  5  2  0  0  0  0
  5  9  1  0  0  0  0
  5  6  1  0  0  0  0
  6  7  1  0  0  0  0
  8  7  1  0  0  0  0
  9  8  1  0  0  0  0
 10  9  2  0  0  0  0
 11 10  1  0  0  0  0
 12 11  1  0  0  0  0
 13 14  1  0  0  0  0
 13 12  1  0  0  0  0
 14 19  1  1  0  0  0
 14 15  1  0  0  0  0
 16 14  1  0  0  0  0
 17 18  1  0  0  0  0
 17 16  1  0  0  0  0
 19 18  1  6  0  0  0
 19 20  1  0  0  0  0
 20 21  1  0  0  0  0
 21 22  1  6  0  0  0
 23 22  1  0  0  0  0
 25 24  1  0  0  0  0
 25 27  1  0  0  0  0
 26 25  2  0  0  0  0
 27 35  1  6  0  0  0
 27 28  1  0  0  0  0
 27 30  1  0  0  0  0
 28 29  1  0  0  0  0
 30 31  1  0  0  0  0
 31 33  1  0  0  0  0
 31 32  2  0  0  0  0
 33 34  1  0  0  0  0
 35 36  1  0  0  0  0
 36 37  1  0  0  0  0
 37 38  1  0  0  0  0
 38 40  1  0  0  0  0
 38 39  1  0  0  0  0
 38 41  1  0  0  0  0
 42 41  1  0  0  0  0
M  END
>  <minimizedAffinity>
-7.6474905

$$$$

 OpenBabel12271914393D

 42 46  0  0  1  0  0  0  0  0999 V2000
  -18.7390  -26.3860  -11.1160 C   0  0  1  0  0  0  0  0  0  0  0  0
  -17.2160  -25.8600  -11.0350 C   0  0  1  0  0  0  0  0  0  0  0  0
  -16.3580  -25.9910   -9.7030 C   0  0  0  0  0  0  0  0  0  0  0  0
  -16.9810  -26.5730   -8.6080 C   0  0  0  0  0  0  0  0  0  0  0  0
  -16.1900  -26.7970   -7.5080 C   0  0  0  0  0  0  0  0  0  0  0  0
  -16.6670  -27.4060   -6.3000 O   0  0  0  0  0  0  0  0  0  0  0  0
  -15.3360  -27.5250   -5.7180 C   0  0  0  0  0  0  0  0  0  0  0  0
  -14.2290  -26.8080   -6.2590 O   0  0  0  0  0  0  0  0  0  0  0  0
  -14.8400  -26.4700   -7.4350 C   0  0  0  0  0  0  0  0  0  0  0  0
  -14.1690  -25.8780   -8.5070 C   0  0  0  0  0  0  0  0  0  0  0  0
  -14.9520  -25.6470   -9.6490 C   0  0  0  0  0  0  0  0  0  0  0  0
  -14.1600  -25.1120  -10.8370 C   0  0  0  0  0  0  0  0  0  0  0  0
  -14.4530  -25.6850  -12.2290 C   0  0  0  0  0  0  0  0  0  0  0  0
  -15.1380  -27.0150  -12.1770 N   0  0  2  0  0  0  0  0  0  0  0  0
  -14.8580  -27.5450  -11.3400 H   0  0  0  0  0  0  0  0  0  0  0  0
  -14.8800  -27.8260  -13.4180 C   0  0  0  0  0  0  0  0  0  0  0  0
  -15.8640  -27.1780  -14.4150 C   0  0  0  0  0  0  0  0  0  0  0  0
  -16.9870  -26.5450  -13.6020 C   0  0  0  0  0  0  0  0  0  0  0  0
  -16.6320  -26.9100  -12.1400 C   0  0  2  0  0  0  0  0  0  0  0  0
  -17.3780  -28.1910  -11.7000 C   0  0  0  0  0  0  0  0  0  0  0  0
  -18.5380  -27.9230  -11.0390 C   0  0  2  0  0  0  0  0  0  0  0  0
  -19.5070  -28.8810  -10.8890 O   0  0  0  0  0  0  0  0  0  0  0  0
  -19.9550  -29.3900  -12.1110 C   0  0  0  0  0  0  0  0  0  0  0  0
  -19.6380  -25.7970  -10.1200 O   0  0  0  0  0  0  0  0  0  0  0  0
  -20.9520  -25.7680  -10.5870 C   0  0  0  0  0  0  0  0  0  0  0  0
  -21.1840  -25.3850  -11.7270 O   0  0  0  0  0  0  0  0  0  0  0  0
  -21.9790  -26.3120   -9.5990 C   0  0  2  0  0  0  0  0  0  0  0  0
  -21.5900  -27.6120   -9.1900 O   0  0  0  0  0  0  0  0  0  0  0  0
  -21.3420  -28.1130   -9.9480 H   0  0  0  0  0  0  0  0  0  0  0  0
  -23.4190  -26.4580  -10.0860 C   0  0  0  0  0  0  0  0  0  0  0  0
  -23.6840  -27.9390  -10.2280 C   0  0  0  0  0  0  0  0  0  0  0  0
  -24.3010  -28.5920   -9.4310 O   0  0  0  0  0  0  0  0  0  0  0  0
  -23.2670  -28.3690  -11.4520 O   0  0  0  0  0  0  0  0  0  0  0  0
  -24.2770  -28.3810  -12.4430 C   0  0  0  0  0  0  0  0  0  0  0  0
  -21.9480  -25.4020   -8.3060 C   0  0  0  0  0  0  0  0  0  0  0  0
  -23.2970  -25.3810   -7.6110 C   0  0  0  0  0  0  0  0  0  0  0  0
  -23.4500  -26.2760   -6.4110 C   0  0  0  0  0  0  0  0  0  0  0  0
  -24.7810  -26.9930   -6.2550 C   0  0  0  0  0  0  0  0  0  0  0  0
  -25.8690  -26.3860   -7.1310 C   0  0  0  0  0  0  0  0  0  0  0  0
  -25.2630  -26.8300   -4.7790 C   0  0  0  0  0  0  0  0  0  0  0  0
  -24.6450  -28.3590   -6.5460 O   0  0  0  0  0  0  0  0  0  0  0  0
  -23.8200  -28.6920   -6.2630 H   0  0  0  0  0  0  0  0  0  0  0  0
  1 21  1  0  0  0  0
  1  2  1  0  0  0  0
  1 24  1  1  0  0  0
  2 19  1  6  0  0  0
  2  3  1  0  0  0  0
  3 11  2  0  0  0  0
  3  4  1  0  0  0  0
  4  5  2  0  0  0  0
  5  9  1  0  0  0  0
  5  6  1  0  0  0  0
  6  7  1  0  0  0  0
  8  7  1  0  0  0  0
  9  8  1  0  0  0  0
 10  9  2  0  0  0  0
 11 10  1  0  0  0  0
 12 11  1  0  0  0  0
 13 14  1  0  0  0  0
 13 12  1  0  0  0  0
 14 19  1  1  0  0  0
 14 15  1  0  0  0  0
 16 14  1  0  0  0  0
 17 18  1  0  0  0  0
 17 16  1  0  0  0  0
 19 18  1  6  0  0  0
 19 20  1  0  0  0  0
 20 21  1  0  0  0  0
 21 22  1  6  0  0  0
 23 22  1  0  0  0  0
 25 24  1  0  0  0  0
 25 27  1  0  0  0  0
 26 25  2  0  0  0  0
 27 30  1  6  0  0  0
 27 28  1  0  0  0  0
 27 35  1  0  0  0  0
 29 28  1  0  0  0  0
 31 30  1  0  0  0  0
 31 32  2  0  0  0  0
 33 31  1  0  0  0  0
 34 33  1  0  0  0  0
 35 36  1  0  0  0  0
 36 37  1  0  0  0  0
 37 38  1  0  0  0  0
 38 40  1  0  0  0  0
 39 38  1  0  0  0  0
 41 42  1  0  0  0  0
 41 38  1  0  0  0  0
M  END
>  <minimizedAffinity>
-7.47350597

$$$$

 OpenBabel12271914393D

 42 46  0  0  1  0  0  0  0  0999 V2000
  -16.6410  -25.9490   -9.9920 C   0  0  1  0  0  0  0  0  0  0  0  0
  -18.1790  -25.8680   -9.5160 C   0  0  1  0  0  0  0  0  0  0  0  0
  -19.2750  -26.8850  -10.0580 C   0  0  0  0  0  0  0  0  0  0  0  0
  -18.8500  -27.8440  -10.9670 C   0  0  0  0  0  0  0  0  0  0  0  0
  -19.7750  -28.7920  -11.3260 C   0  0  0  0  0  0  0  0  0  0  0  0
  -19.4970  -29.8630  -12.2380 O   0  0  0  0  0  0  0  0  0  0  0  0
  -20.7590  -30.5450  -11.9760 C   0  0  0  0  0  0  0  0  0  0  0  0
  -21.8290  -29.8800  -11.3080 O   0  0  0  0  0  0  0  0  0  0  0  0
  -21.0800  -28.8320  -10.8480 C   0  0  0  0  0  0  0  0  0  0  0  0
  -21.5580  -27.8880   -9.9370 C   0  0  0  0  0  0  0  0  0  0  0  0
  -20.6290  -26.9110   -9.5440 C   0  0  0  0  0  0  0  0  0  0  0  0
  -21.1480  -25.9720   -8.4610 C   0  0  0  0  0  0  0  0  0  0  0  0
  -20.2120  -25.6010   -7.3050 C   0  0  0  0  0  0  0  0  0  0  0  0
  -19.0820  -26.5680   -7.1390 N   0  0  2  0  0  0  0  0  0  0  0  0
  -19.3600  -27.5170   -7.4240 H   0  0  0  0  0  0  0  0  0  0  0  0
  -18.5590  -26.5800   -5.7280 C   0  0  0  0  0  0  0  0  0  0  0  0
  -17.6840  -25.3090   -5.7170 C   0  0  0  0  0  0  0  0  0  0  0  0
  -17.2620  -25.0330   -7.1560 C   0  0  0  0  0  0  0  0  0  0  0  0
  -17.8740  -26.2120   -7.9500 C   0  0  2  0  0  0  0  0  0  0  0  0
  -16.8370  -27.3460   -8.1310 C   0  0  0  0  0  0  0  0  0  0  0  0
  -16.1810  -27.2710   -9.3220 C   0  0  2  0  0  0  0  0  0  0  0  0
  -15.0000  -27.9380   -9.5240 O   0  0  0  0  0  0  0  0  0  0  0  0
  -14.0190  -27.5920   -8.5900 C   0  0  0  0  0  0  0  0  0  0  0  0
  -16.4480  -25.8540  -11.4420 O   0  0  0  0  0  0  0  0  0  0  0  0
  -15.1030  -25.6640  -11.7570 C   0  0  0  0  0  0  0  0  0  0  0  0
  -14.4020  -24.9660  -11.0350 O   0  0  0  0  0  0  0  0  0  0  0  0
  -14.6290  -26.4470  -12.9790 C   0  0  2  0  0  0  0  0  0  0  0  0
  -13.2550  -26.7570  -12.8300 O   0  0  0  0  0  0  0  0  0  0  0  0
  -12.7930  -25.9870  -12.5460 H   0  0  0  0  0  0  0  0  0  0  0  0
  -14.7430  -25.7670  -14.3410 C   0  0  0  0  0  0  0  0  0  0  0  0
  -13.3420  -25.6680  -14.8980 C   0  0  0  0  0  0  0  0  0  0  0  0
  -12.5520  -24.8190  -14.5870 O   0  0  0  0  0  0  0  0  0  0  0  0
  -13.0690  -26.7640  -15.6600 O   0  0  0  0  0  0  0  0  0  0  0  0
  -13.7580  -26.8030  -16.8960 C   0  0  0  0  0  0  0  0  0  0  0  0
  -15.4050  -27.8250  -13.0090 C   0  0  0  0  0  0  0  0  0  0  0  0
  -16.1160  -28.0310  -14.3340 C   0  0  0  0  0  0  0  0  0  0  0  0
  -16.0830  -29.4230  -14.9070 C   0  0  0  0  0  0  0  0  0  0  0  0
  -17.4230  -30.0730  -15.2080 C   0  0  0  0  0  0  0  0  0  0  0  0
  -17.4110  -30.8310  -16.5290 C   0  0  0  0  0  0  0  0  0  0  0  0
  -18.4970  -28.9490  -15.3550 C   0  0  0  0  0  0  0  0  0  0  0  0
  -17.8000  -30.9350  -14.1690 O   0  0  0  0  0  0  0  0  0  0  0  0
  -17.5390  -30.6070  -13.3350 H   0  0  0  0  0  0  0  0  0  0  0  0
  1 24  1  6  0  0  0
  1  2  1  0  0  0  0
  1 21  1  0  0  0  0
  2 19  1  1  0  0  0
  3 11  2  0  0  0  0
  3  2  1  0  0  0  0
  4  3  1  0  0  0  0
  5  4  2  0  0  0  0
  5  9  1  0  0  0  0
  6  7  1  0  0  0  0
  6  5  1  0  0  0  0
  7  8  1  0  0  0  0
  8  9  1  0  0  0  0
  9 10  2  0  0  0  0
 10 11  1  0  0  0  0
 11 12  1  0  0  0  0
 12 13  1  0  0  0  0
 13 14  1  0  0  0  0
 14 19  1  6  0  0  0
 14 16  1  0  0  0  0
 15 14  1  0  0  0  0
 16 17  1  0  0  0  0
 18 17  1  0  0  0  0
 19 20  1  1  0  0  0
 19 18  1  0  0  0  0
 21 22  1  1  0  0  0
 21 20  1  0  0  0  0
 22 23  1  0  0  0  0
 25 24  1  0  0  0  0
 25 26  2  0  0  0  0
 27 30  1  6  0  0  0
 27 28  1  0  0  0  0
 27 25  1  0  0  0  0
 28 29  1  0  0  0  0
 31 32  2  0  0  0  0
 31 30  1  0  0  0  0
 33 31  1  0  0  0  0
 34 33  1  0  0  0  0
 35 27  1  0  0  0  0
 36 35  1  0  0  0  0
 37 36  1  0  0  0  0
 38 37  1  0  0  0  0
 38 41  1  0  0  0  0
 39 38  1  0  0  0  0
 40 38  1  0  0  0  0
 41 42  1  0  0  0  0
M  END
>  <minimizedAffinity>
-7.22368336

$$$$

 OpenBabel12271914393D

 42 46  0  0  1  0  0  0  0  0999 V2000
  -16.6720  -25.9650   -9.9110 C   0  0  1  0  0  0  0  0  0  0  0  0
  -18.2250  -25.8670   -9.4880 C   0  0  1  0  0  0  0  0  0  0  0  0
  -19.3120  -26.8760  -10.0640 C   0  0  0  0  0  0  0  0  0  0  0  0
  -18.8650  -27.8420  -10.9530 C   0  0  0  0  0  0  0  0  0  0  0  0
  -19.7860  -28.7830  -11.3400 C   0  0  0  0  0  0  0  0  0  0  0  0
  -19.4880  -29.8610  -12.2380 O   0  0  0  0  0  0  0  0  0  0  0  0
  -20.7640  -30.5300  -12.0170 C   0  0  0  0  0  0  0  0  0  0  0  0
  -21.8500  -29.8520  -11.3880 O   0  0  0  0  0  0  0  0  0  0  0  0
  -21.1080  -28.8090  -10.9070 C   0  0  0  0  0  0  0  0  0  0  0  0
  -21.6070  -27.8570  -10.0170 C   0  0  0  0  0  0  0  0  0  0  0  0
  -20.6830  -26.8870   -9.5960 C   0  0  0  0  0  0  0  0  0  0  0  0
  -21.2290  -25.9380   -8.5360 C   0  0  0  0  0  0  0  0  0  0  0  0
  -20.3300  -25.5710   -7.3490 C   0  0  0  0  0  0  0  0  0  0  0  0
  -19.2160  -26.5490   -7.1410 N   0  0  2  0  0  0  0  0  0  0  0  0
  -19.4930  -27.4960   -7.4320 H   0  0  0  0  0  0  0  0  0  0  0  0
  -18.7410  -26.5600   -5.7120 C   0  0  0  0  0  0  0  0  0  0  0  0
  -17.8540  -25.2970   -5.6770 C   0  0  0  0  0  0  0  0  0  0  0  0
  -17.3810  -25.0310   -7.1010 C   0  0  0  0  0  0  0  0  0  0  0  0
  -17.9770  -26.2070   -7.9110 C   0  0  2  0  0  0  0  0  0  0  0  0
  -16.9460  -27.3520   -8.0520 C   0  0  0  0  0  0  0  0  0  0  0  0
  -16.2480  -27.2890   -9.2200 C   0  0  2  0  0  0  0  0  0  0  0  0
  -15.0680  -27.9680   -9.3790 O   0  0  0  0  0  0  0  0  0  0  0  0
  -14.0840  -27.5560   -8.4760 C   0  0  0  0  0  0  0  0  0  0  0  0
  -16.4290  -25.8780  -11.3540 O   0  0  0  0  0  0  0  0  0  0  0  0
  -15.0980  -25.5550  -11.6190 C   0  0  0  0  0  0  0  0  0  0  0  0
  -14.4610  -24.8940  -10.8090 O   0  0  0  0  0  0  0  0  0  0  0  0
  -14.5530  -26.1570  -12.9110 C   0  0  2  0  0  0  0  0  0  0  0  0
  -15.4670  -25.9050  -13.9640 O   0  0  0  0  0  0  0  0  0  0  0  0
  -16.3390  -26.1070  -13.6720 H   0  0  0  0  0  0  0  0  0  0  0  0
  -14.3120  -27.6650  -12.9400 C   0  0  0  0  0  0  0  0  0  0  0  0
  -15.3310  -28.2520  -13.8880 C   0  0  0  0  0  0  0  0  0  0  0  0
  -16.4810  -28.4510  -13.6020 O   0  0  0  0  0  0  0  0  0  0  0  0
  -14.7950  -28.3600  -15.1360 O   0  0  0  0  0  0  0  0  0  0  0  0
  -15.0530  -29.5950  -15.7780 C   0  0  0  0  0  0  0  0  0  0  0  0
  -13.2150  -25.4000  -13.2790 C   0  0  0  0  0  0  0  0  0  0  0  0
  -13.0880  -25.1960  -14.7770 C   0  0  0  0  0  0  0  0  0  0  0  0
  -11.8760  -24.4430  -15.2550 C   0  0  0  0  0  0  0  0  0  0  0  0
  -11.4590  -24.6580  -16.7000 C   0  0  0  0  0  0  0  0  0  0  0  0
  -12.4980  -24.1340  -17.6830 C   0  0  0  0  0  0  0  0  0  0  0  0
  -11.3440  -26.1930  -16.9600 C   0  0  0  0  0  0  0  0  0  0  0  0
  -10.2190  -24.0550  -16.9540 O   0  0  0  0  0  0  0  0  0  0  0  0
   -9.6490  -24.1130  -16.2170 H   0  0  0  0  0  0  0  0  0  0  0  0
  1 24  1  6  0  0  0
  1  2  1  0  0  0  0
  1 21  1  0  0  0  0
  2 19  1  1  0  0  0
  3 11  2  0  0  0  0
  3  2  1  0  0  0  0
  4  3  1  0  0  0  0
  5  4  2  0  0  0  0
  5  9  1  0  0  0  0
  6  7  1  0  0  0  0
  6  5  1  0  0  0  0
  7  8  1  0  0  0  0
  8  9  1  0  0  0  0
  9 10  2  0  0  0  0
 10 11  1  0  0  0  0
 11 12  1  0  0  0  0
 12 13  1  0  0  0  0
 13 14  1  0  0  0  0
 14 19  1  6  0  0  0
 14 16  1  0  0  0  0
 15 14  1  0  0  0  0
 16 17  1  0  0  0  0
 18 17  1  0  0  0  0
 19 20  1  1  0  0  0
 19 18  1  0  0  0  0
 21 22  1  1  0  0  0
 21 20  1  0  0  0  0
 22 23  1  0  0  0  0
 25 24  1  0  0  0  0
 25 26  2  0  0  0  0
 27 35  1  6  0  0  0
 27 25  1  0  0  0  0
 28 29  1  0  0  0  0
 28 27  1  0  0  0  0
 30 27  1  0  0  0  0
 31 32  2  0  0  0  0
 31 30  1  0  0  0  0
 33 31  1  0  0  0  0
 34 33  1  0  0  0  0
 36 35  1  0  0  0  0
 37 36  1  0  0  0  0
 38 37  1  0  0  0  0
 39 38  1  0  0  0  0
 40 38  1  0  0  0  0
 41 38  1  0  0  0  0
 41 42  1  0  0  0  0
M  END
>  <minimizedAffinity>
-6.9162631

$$$$

 OpenBabel12271914393D

 42 46  0  0  1  0  0  0  0  0999 V2000
  -21.4640  -26.2250   -8.9960 C   0  0  1  0  0  0  0  0  0  0  0  0
  -20.6060  -27.5240   -9.4190 C   0  0  1  0  0  0  0  0  0  0  0  0
  -21.1550  -28.5790  -10.4740 C   0  0  0  0  0  0  0  0  0  0  0  0
  -22.4110  -28.3370  -11.0110 C   0  0  0  0  0  0  0  0  0  0  0  0
  -22.8160  -29.1840  -12.0130 C   0  0  0  0  0  0  0  0  0  0  0  0
  -24.0750  -29.0650  -12.6890 O   0  0  0  0  0  0  0  0  0  0  0  0
  -23.7400  -30.0650  -13.6960 C   0  0  0  0  0  0  0  0  0  0  0  0
  -22.6330  -30.9460  -13.5180 O   0  0  0  0  0  0  0  0  0  0  0  0
  -22.0580  -30.2460  -12.4940 C   0  0  0  0  0  0  0  0  0  0  0  0
  -20.7910  -30.5340  -11.9830 C   0  0  0  0  0  0  0  0  0  0  0  0
  -20.3470  -29.6780  -10.9630 C   0  0  0  0  0  0  0  0  0  0  0  0
  -18.9160  -29.9480  -10.5150 C   0  0  0  0  0  0  0  0  0  0  0  0
  -17.9870  -28.7530  -10.2700 C   0  0  0  0  0  0  0  0  0  0  0  0
  -18.4570  -27.5040  -10.9480 N   0  0  2  0  0  0  0  0  0  0  0  0
  -18.9630  -27.7210  -11.8180 H   0  0  0  0  0  0  0  0  0  0  0  0
  -17.3200  -26.5580  -11.2290 C   0  0  0  0  0  0  0  0  0  0  0  0
  -17.1090  -25.9160   -9.8420 C   0  0  0  0  0  0  0  0  0  0  0  0
  -18.4270  -26.0240   -9.0830 C   0  0  0  0  0  0  0  0  0  0  0  0
  -19.3840  -26.6850  -10.1030 C   0  0  2  0  0  0  0  0  0  0  0  0
  -20.2000  -25.6120  -10.8620 C   0  0  0  0  0  0  0  0  0  0  0  0
  -21.4230  -25.3910  -10.3040 C   0  0  2  0  0  0  0  0  0  0  0  0
  -22.1380  -24.2560  -10.5880 O   0  0  0  0  0  0  0  0  0  0  0  0
  -22.2730  -23.4130   -9.4810 C   0  0  0  0  0  0  0  0  0  0  0  0
  -22.7930  -26.5250   -8.4570 O   0  0  0  0  0  0  0  0  0  0  0  0
  -22.8590  -26.2340   -7.0950 C   0  0  0  0  0  0  0  0  0  0  0  0
  -21.9170  -25.6740   -6.5470 O   0  0  0  0  0  0  0  0  0  0  0  0
  -24.1880  -26.5970   -6.4400 C   0  0  2  0  0  0  0  0  0  0  0  0
  -23.9410  -27.1520   -5.1600 O   0  0  0  0  0  0  0  0  0  0  0  0
  -23.2500  -27.7880   -5.2270 H   0  0  0  0  0  0  0  0  0  0  0  0
  -25.0720  -27.6170   -7.1550 C   0  0  0  0  0  0  0  0  0  0  0  0
  -25.5440  -28.5970   -6.1070 C   0  0  0  0  0  0  0  0  0  0  0  0
  -26.4180  -28.3690   -5.3160 O   0  0  0  0  0  0  0  0  0  0  0  0
  -24.9510  -29.8080   -6.3070 O   0  0  0  0  0  0  0  0  0  0  0  0
  -24.5630  -30.4710   -5.1180 C   0  0  0  0  0  0  0  0  0  0  0  0
  -25.0020  -25.2620   -6.2070 C   0  0  0  0  0  0  0  0  0  0  0  0
  -25.4370  -25.1230   -4.7600 C   0  0  0  0  0  0  0  0  0  0  0  0
  -25.5510  -23.7230   -4.2210 C   0  0  0  0  0  0  0  0  0  0  0  0
  -25.5360  -23.5650   -2.7100 C   0  0  0  0  0  0  0  0  0  0  0  0
  -26.9200  -23.7410   -2.0990 C   0  0  0  0  0  0  0  0  0  0  0  0
  -25.0860  -22.1100   -2.3670 C   0  0  0  0  0  0  0  0  0  0  0  0
  -24.6400  -24.4720   -2.1260 O   0  0  0  0  0  0  0  0  0  0  0  0
  -23.8850  -24.6040   -2.6590 H   0  0  0  0  0  0  0  0  0  0  0  0
  1 24  1  6  0  0  0
  2 19  1  6  0  0  0
  2  1  1  0  0  0  0
  3  2  1  0  0  0  0
  4  3  2  0  0  0  0
  5  4  1  0  0  0  0
  6  5  1  0  0  0  0
  7  8  1  0  0  0  0
  7  6  1  0  0  0  0
  8  9  1  0  0  0  0
  9  5  2  0  0  0  0
  9 10  1  0  0  0  0
 10 11  2  0  0  0  0
 11 12  1  0  0  0  0
 11  3  1  0  0  0  0
 12 13  1  0  0  0  0
 14 13  1  0  0  0  0
 14 19  1  1  0  0  0
 15 14  1  0  0  0  0
 16 14  1  0  0  0  0
 16 17  1  0  0  0  0
 17 18  1  0  0  0  0
 19 20  1  6  0  0  0
 19 18  1  0  0  0  0
 20 21  1  0  0  0  0
 21 22  1  1  0  0  0
 21  1  1  0  0  0  0
 22 23  1  0  0  0  0
 24 25  1  0  0  0  0
 25 26  2  0  0  0  0
 25 27  1  0  0  0  0
 27 30  1  6  0  0  0
 27 35  1  0  0  0  0
 27 28  1  0  0  0  0
 29 28  1  0  0  0  0
 30 31  1  0  0  0  0
 31 32  2  0  0  0  0
 33 31  1  0  0  0  0
 33 34  1  0  0  0  0
 35 36  1  0  0  0  0
 36 37  2  0  0  0  0
 37 38  1  0  0  0  0
 38 40  1  0  0  0  0
 38 41  1  0  0  0  0
 38 39  1  0  0  0  0
 42 41  1  0  0  0  0
M  END
>  <minimizedAffinity>
-6.80806398

$$$$
