
 OpenBabel12271914533D

 30 33  0  0  1  0  0  0  0  0999 V2000
  -19.5590  -26.5530   -7.0810 C   0  0  1  0  0  0  0  0  0  0  0  0
  -19.9940  -25.5430   -6.0940 N   0  0  0  0  0  0  0  0  0  0  0  0
  -20.7040  -25.9610   -5.5230 H   0  0  0  0  0  0  0  0  0  0  0  0
  -20.9170  -24.6640   -6.9440 O   0  0  0  0  0  0  0  0  0  0  0  0
  -21.5350  -25.5550   -7.8780 C   0  0  2  0  0  0  0  0  0  0  0  0
  -22.3220  -24.7360   -8.9750 C   0  0  1  0  0  0  0  0  0  0  0  0
  -23.7670  -25.2710   -9.1890 C   0  0  2  0  0  0  0  0  0  0  0  0
  -24.5130  -25.6320   -7.8620 C   0  0  1  0  0  0  0  0  0  0  0  0
  -23.5180  -25.7780   -6.6810 C   0  0  2  0  0  0  0  0  0  0  0  0
  -22.3870  -26.4920   -7.1820 O   0  0  0  0  0  0  0  0  0  0  0  0
  -20.3740  -26.2950   -8.3810 C   0  0  0  0  0  0  0  0  0  0  0  0
  -18.0560  -26.4940   -7.2350 C   0  0  0  0  0  0  0  0  0  0  0  0
  -17.2810  -26.7120   -6.1080 C   0  0  0  0  0  0  0  0  0  0  0  0
  -15.8920  -26.6110   -6.1480 C   0  0  0  0  0  0  0  0  0  0  0  0
  -15.2890  -26.3020   -7.3800 C   0  0  0  0  0  0  0  0  0  0  0  0
  -13.8960  -26.2080   -7.4480 C   0  0  0  0  0  0  0  0  0  0  0  0
  -13.2770  -25.9110   -8.6810 C   0  0  0  0  0  0  0  0  0  0  0  0
  -14.0560  -25.6980   -9.8200 C   0  0  0  0  0  0  0  0  0  0  0  0
  -15.4470  -25.7790   -9.7670 C   0  0  0  0  0  0  0  0  0  0  0  0
  -16.0580  -26.0950   -8.5320 C   0  0  0  0  0  0  0  0  0  0  0  0
  -17.4490  -26.2000   -8.4710 C   0  0  0  0  0  0  0  0  0  0  0  0
  -23.7290  -26.3820  -10.1090 O   0  0  0  0  0  0  0  0  0  0  0  0
  -23.9650  -27.1890   -9.6380 H   0  0  0  0  0  0  0  0  0  0  0  0
  -22.3980  -23.3420   -8.5520 O   0  0  0  0  0  0  0  0  0  0  0  0
  -23.0990  -22.9190   -9.0140 H   0  0  0  0  0  0  0  0  0  0  0  0
  -25.4960  -24.5840   -7.6690 O   0  0  0  0  0  0  0  0  0  0  0  0
  -25.0180  -23.8070   -7.3860 H   0  0  0  0  0  0  0  0  0  0  0  0
  -24.0740  -26.5330   -5.4690 C   0  0  0  0  0  0  0  0  0  0  0  0
  -24.1670  -27.9310   -5.7500 O   0  0  0  0  0  0  0  0  0  0  0  0
  -25.0240  -28.2250   -5.4500 H   0  0  0  0  0  0  0  0  0  0  0  0
  1 12  1  6  0  0  0
  1  2  1  0  0  0  0
  2  3  1  0  0  0  0
  4  2  1  0  0  0  0
  5 11  1  6  0  0  0
  5 10  1  0  0  0  0
  5  4  1  0  0  0  0
  6 24  1  0  0  0  0
  6  5  1  1  0  0  0
  7 22  1  6  0  0  0
  7  6  1  0  0  0  0
  7  8  1  0  0  0  0
  8 26  1  1  0  0  0
  8  9  1  0  0  0  0
  9 28  1  1  0  0  0
 10  9  1  0  0  0  0
 11  1  1  0  0  0  0
 12 13  2  0  0  0  0
 14 13  1  0  0  0  0
 15 14  2  0  0  0  0
 16 15  1  0  0  0  0
 17 16  2  0  0  0  0
 18 19  2  0  0  0  0
 18 17  1  0  0  0  0
 19 20  1  0  0  0  0
 20 21  2  0  0  0  0
 20 15  1  0  0  0  0
 21 12  1  0  0  0  0
 22 23  1  0  0  0  0
 25 24  1  0  0  0  0
 26 27  1  0  0  0  0
 29 28  1  0  0  0  0
 29 30  1  0  0  0  0
M  END
>  <minimizedAffinity>
-9.34053993

$$$$

 OpenBabel12271914533D

 30 33  0  0  1  0  0  0  0  0999 V2000
  -14.3080  -25.6400  -11.5350 C   0  0  1  0  0  0  0  0  0  0  0  0
  -13.0770  -26.3110  -12.0020 N   0  0  0  0  0  0  0  0  0  0  0  0
  -12.5930  -25.6730  -12.6040 H   0  0  0  0  0  0  0  0  0  0  0  0
  -13.6290  -27.2330  -13.0950 O   0  0  0  0  0  0  0  0  0  0  0  0
  -14.7210  -26.5170  -13.6790 C   0  0  2  0  0  0  0  0  0  0  0  0
  -15.5330  -27.4590  -14.6520 C   0  0  1  0  0  0  0  0  0  0  0  0
  -15.7960  -26.7960  -16.0340 C   0  0  2  0  0  0  0  0  0  0  0  0
  -14.5650  -26.0250  -16.6130 C   0  0  1  0  0  0  0  0  0  0  0  0
  -13.5140  -25.7370  -15.5090 C   0  0  2  0  0  0  0  0  0  0  0  0
  -14.2380  -25.3300  -14.3470 O   0  0  0  0  0  0  0  0  0  0  0  0
  -15.4560  -26.0890  -12.4850 C   0  0  0  0  0  0  0  0  0  0  0  0
  -14.5240  -25.9430  -10.0690 C   0  0  0  0  0  0  0  0  0  0  0  0
  -13.4650  -26.4830   -9.3580 C   0  0  0  0  0  0  0  0  0  0  0  0
  -13.5990  -26.8520   -8.0210 C   0  0  0  0  0  0  0  0  0  0  0  0
  -14.8420  -26.6400   -7.3990 C   0  0  0  0  0  0  0  0  0  0  0  0
  -14.9960  -26.9900   -6.0550 C   0  0  0  0  0  0  0  0  0  0  0  0
  -16.2340  -26.7710   -5.4150 C   0  0  0  0  0  0  0  0  0  0  0  0
  -17.3010  -26.2220   -6.1290 C   0  0  0  0  0  0  0  0  0  0  0  0
  -17.1670  -25.8750   -7.4740 C   0  0  0  0  0  0  0  0  0  0  0  0
  -15.9170  -26.0800   -8.1010 C   0  0  0  0  0  0  0  0  0  0  0  0
  -15.7630  -25.7180   -9.4400 C   0  0  0  0  0  0  0  0  0  0  0  0
  -16.9660  -25.9570  -15.9410 O   0  0  0  0  0  0  0  0  0  0  0  0
  -16.7020  -25.0360  -16.0370 H   0  0  0  0  0  0  0  0  0  0  0  0
  -14.7700  -28.6850  -14.8590 O   0  0  0  0  0  0  0  0  0  0  0  0
  -15.0730  -29.1050  -15.6440 H   0  0  0  0  0  0  0  0  0  0  0  0
  -14.0620  -26.8480  -17.6960 O   0  0  0  0  0  0  0  0  0  0  0  0
  -13.6190  -27.5920  -17.2920 H   0  0  0  0  0  0  0  0  0  0  0  0
  -12.5010  -24.6420  -15.8620 C   0  0  0  0  0  0  0  0  0  0  0  0
  -11.3900  -24.6790  -14.9640 O   0  0  0  0  0  0  0  0  0  0  0  0
  -11.2160  -23.7830  -14.6890 H   0  0  0  0  0  0  0  0  0  0  0  0
  1 12  1  1  0  0  0
  2  1  1  0  0  0  0
  3  2  1  0  0  0  0
  4  2  1  0  0  0  0
  5  4  1  0  0  0  0
  5 11  1  1  0  0  0
  6  5  1  1  0  0  0
  7 22  1  1  0  0  0
  7  6  1  0  0  0  0
  8 26  1  6  0  0  0
  8  7  1  0  0  0  0
  8  9  1  0  0  0  0
  9 28  1  6  0  0  0
  9 10  1  0  0  0  0
 10  5  1  0  0  0  0
 11  1  1  0  0  0  0
 12 21  2  0  0  0  0
 12 13  1  0  0  0  0
 13 14  2  0  0  0  0
 14 15  1  0  0  0  0
 15 16  2  0  0  0  0
 16 17  1  0  0  0  0
 18 17  2  0  0  0  0
 19 18  1  0  0  0  0
 20 19  2  0  0  0  0
 20 15  1  0  0  0  0
 21 20  1  0  0  0  0
 23 22  1  0  0  0  0
 24  6  1  0  0  0  0
 25 24  1  0  0  0  0
 26 27  1  0  0  0  0
 28 29  1  0  0  0  0
 29 30  1  0  0  0  0
M  END
>  <minimizedAffinity>
-9.00492477

$$$$

 OpenBabel12271914533D

 30 33  0  0  1  0  0  0  0  0999 V2000
  -14.9210  -25.6470  -11.3680 C   0  0  1  0  0  0  0  0  0  0  0  0
  -13.6690  -26.4030  -11.5820 N   0  0  0  0  0  0  0  0  0  0  0  0
  -13.0230  -25.7950  -12.0480 H   0  0  0  0  0  0  0  0  0  0  0  0
  -14.0370  -27.2660  -12.7930 O   0  0  0  0  0  0  0  0  0  0  0  0
  -14.9260  -26.4610  -13.5750 C   0  0  2  0  0  0  0  0  0  0  0  0
  -15.5750  -27.3270  -14.7260 C   0  0  1  0  0  0  0  0  0  0  0  0
  -15.4880  -26.6280  -16.1130 C   0  0  2  0  0  0  0  0  0  0  0  0
  -14.1090  -25.9450  -16.3930 C   0  0  1  0  0  0  0  0  0  0  0  0
  -13.3020  -25.7520  -15.0830 C   0  0  2  0  0  0  0  0  0  0  0  0
  -14.2280  -25.3060  -14.0910 O   0  0  0  0  0  0  0  0  0  0  0  0
  -15.8670  -25.9950  -12.5540 C   0  0  0  0  0  0  0  0  0  0  0  0
  -15.4660  -25.9510   -9.9910 C   0  0  0  0  0  0  0  0  0  0  0  0
  -16.7960  -25.6520   -9.7410 C   0  0  0  0  0  0  0  0  0  0  0  0
  -17.3600  -25.8390   -8.4810 C   0  0  0  0  0  0  0  0  0  0  0  0
  -16.5440  -26.3670   -7.4650 C   0  0  0  0  0  0  0  0  0  0  0  0
  -17.0920  -26.5760   -6.1960 C   0  0  0  0  0  0  0  0  0  0  0  0
  -16.2870  -27.1160   -5.1700 C   0  0  0  0  0  0  0  0  0  0  0  0
  -14.9490  -27.4240   -5.4220 C   0  0  0  0  0  0  0  0  0  0  0  0
  -14.3840  -27.2130   -6.6800 C   0  0  0  0  0  0  0  0  0  0  0  0
  -15.2020  -26.6890   -7.7070 C   0  0  0  0  0  0  0  0  0  0  0  0
  -14.6550  -26.4930   -8.9760 C   0  0  0  0  0  0  0  0  0  0  0  0
  -16.5880  -25.7040  -16.2470 O   0  0  0  0  0  0  0  0  0  0  0  0
  -16.2440  -24.8050  -16.2570 H   0  0  0  0  0  0  0  0  0  0  0  0
  -14.8750  -28.6040  -14.8010 O   0  0  0  0  0  0  0  0  0  0  0  0
  -15.0310  -28.9900  -15.6440 H   0  0  0  0  0  0  0  0  0  0  0  0
  -13.4460  -26.7890  -17.3680 O   0  0  0  0  0  0  0  0  0  0  0  0
  -13.1540  -27.5700  -16.9010 H   0  0  0  0  0  0  0  0  0  0  0  0
  -12.1620  -24.7310  -15.1810 C   0  0  0  0  0  0  0  0  0  0  0  0
  -11.0650  -25.2760  -15.9170 O   0  0  0  0  0  0  0  0  0  0  0  0
  -10.2700  -25.0770  -15.4300 H   0  0  0  0  0  0  0  0  0  0  0  0
  1 12  1  1  0  0  0
  2  1  1  0  0  0  0
  3  2  1  0  0  0  0
  4  2  1  0  0  0  0
  5  4  1  0  0  0  0
  5 11  1  1  0  0  0
  6  5  1  1  0  0  0
  7 22  1  1  0  0  0
  7  6  1  0  0  0  0
  8 26  1  6  0  0  0
  8  7  1  0  0  0  0
  8  9  1  0  0  0  0
  9 28  1  6  0  0  0
  9 10  1  0  0  0  0
 10  5  1  0  0  0  0
 11  1  1  0  0  0  0
 12 13  2  0  0  0  0
 12 21  1  0  0  0  0
 13 14  1  0  0  0  0
 14 15  2  0  0  0  0
 15 16  1  0  0  0  0
 16 17  2  0  0  0  0
 18 17  1  0  0  0  0
 19 18  2  0  0  0  0
 20 15  1  0  0  0  0
 20 19  1  0  0  0  0
 21 20  2  0  0  0  0
 23 22  1  0  0  0  0
 24  6  1  0  0  0  0
 25 24  1  0  0  0  0
 26 27  1  0  0  0  0
 29 30  1  0  0  0  0
 29 28  1  0  0  0  0
M  END
>  <minimizedAffinity>
-8.96585464

$$$$

 OpenBabel12271914533D

 30 33  0  0  1  0  0  0  0  0999 V2000
  -20.2950  -27.0070   -8.8520 C   0  0  1  0  0  0  0  0  0  0  0  0
  -21.0240  -25.7220   -8.8130 N   0  0  0  0  0  0  0  0  0  0  0  0
  -21.8610  -25.8630   -8.2800 H   0  0  0  0  0  0  0  0  0  0  0  0
  -21.6740  -25.6980  -10.2000 O   0  0  0  0  0  0  0  0  0  0  0  0
  -21.9710  -27.0650  -10.5030 C   0  0  2  0  0  0  0  0  0  0  0  0
  -22.4180  -27.2050  -12.0110 C   0  0  1  0  0  0  0  0  0  0  0  0
  -23.7240  -28.0370  -12.1650 C   0  0  2  0  0  0  0  0  0  0  0  0
  -24.8190  -27.7030  -11.1000 C   0  0  1  0  0  0  0  0  0  0  0  0
  -24.2120  -26.9400   -9.8920 C   0  0  2  0  0  0  0  0  0  0  0  0
  -22.9680  -27.5730   -9.5890 O   0  0  0  0  0  0  0  0  0  0  0  0
  -20.6970  -27.7140  -10.1790 C   0  0  0  0  0  0  0  0  0  0  0  0
  -18.8150  -26.7540   -8.6740 C   0  0  0  0  0  0  0  0  0  0  0  0
  -18.1110  -26.2470   -9.7540 C   0  0  0  0  0  0  0  0  0  0  0  0
  -16.7330  -26.0460   -9.6960 C   0  0  0  0  0  0  0  0  0  0  0  0
  -16.0720  -26.3540   -8.4940 C   0  0  0  0  0  0  0  0  0  0  0  0
  -14.6920  -26.1500   -8.4080 C   0  0  0  0  0  0  0  0  0  0  0  0
  -14.0180  -26.4430   -7.2040 C   0  0  0  0  0  0  0  0  0  0  0  0
  -14.7270  -26.9490   -6.1120 C   0  0  0  0  0  0  0  0  0  0  0  0
  -16.1030  -27.1670   -6.1840 C   0  0  0  0  0  0  0  0  0  0  0  0
  -16.7730  -26.8530   -7.3880 C   0  0  0  0  0  0  0  0  0  0  0  0
  -18.1530  -27.0480   -7.4670 C   0  0  0  0  0  0  0  0  0  0  0  0
  -23.3910  -29.4410  -12.1800 O   0  0  0  0  0  0  0  0  0  0  0  0
  -23.7380  -29.8540  -11.3820 H   0  0  0  0  0  0  0  0  0  0  0  0
  -22.6460  -25.8720  -12.5560 O   0  0  0  0  0  0  0  0  0  0  0  0
  -23.1890  -25.9420  -13.3200 H   0  0  0  0  0  0  0  0  0  0  0  0
  -25.8390  -26.9540  -11.8090 O   0  0  0  0  0  0  0  0  0  0  0  0
  -25.4820  -26.0810  -11.9620 H   0  0  0  0  0  0  0  0  0  0  0  0
  -25.0840  -26.9470   -8.6310 C   0  0  0  0  0  0  0  0  0  0  0  0
  -24.3370  -27.4220   -7.5100 O   0  0  0  0  0  0  0  0  0  0  0  0
  -24.8850  -28.0530   -7.0500 H   0  0  0  0  0  0  0  0  0  0  0  0
  1  2  1  0  0  0  0
  1 12  1  6  0  0  0
  2  3  1  0  0  0  0
  4  2  1  0  0  0  0
  5  4  1  0  0  0  0
  5 11  1  1  0  0  0
  5 10  1  0  0  0  0
  6  5  1  1  0  0  0
  7 22  1  1  0  0  0
  7  6  1  0  0  0  0
  7  8  1  0  0  0  0
  8 26  1  6  0  0  0
  8  9  1  0  0  0  0
  9 10  1  0  0  0  0
  9 28  1  1  0  0  0
 11  1  1  0  0  0  0
 12 21  2  0  0  0  0
 13 14  2  0  0  0  0
 13 12  1  0  0  0  0
 14 15  1  0  0  0  0
 15 16  2  0  0  0  0
 15 20  1  0  0  0  0
 16 17  1  0  0  0  0
 17 18  2  0  0  0  0
 19 18  1  0  0  0  0
 20 19  2  0  0  0  0
 21 20  1  0  0  0  0
 22 23  1  0  0  0  0
 24  6  1  0  0  0  0
 25 24  1  0  0  0  0
 27 26  1  0  0  0  0
 28 29  1  0  0  0  0
 29 30  1  0  0  0  0
M  END
>  <minimizedAffinity>
-8.48284054

$$$$

 OpenBabel12271914533D

 30 33  0  0  1  0  0  0  0  0999 V2000
  -17.4320  -26.8780  -10.8780 C   0  0  1  0  0  0  0  0  0  0  0  0
  -18.1490  -28.0480  -10.3310 N   0  0  0  0  0  0  0  0  0  0  0  0
  -19.1090  -27.7870  -10.2090 H   0  0  0  0  0  0  0  0  0  0  0  0
  -17.7420  -27.9920   -8.8550 O   0  0  0  0  0  0  0  0  0  0  0  0
  -17.6160  -26.6000   -8.5490 C   0  0  2  0  0  0  0  0  0  0  0  0
  -16.9580  -26.4120   -7.1250 C   0  0  1  0  0  0  0  0  0  0  0  0
  -17.7480  -25.4070   -6.2380 C   0  0  2  0  0  0  0  0  0  0  0  0
  -19.3000  -25.5760   -6.3160 C   0  0  1  0  0  0  0  0  0  0  0  0
  -19.7130  -26.4050   -7.5610 C   0  0  2  0  0  0  0  0  0  0  0  0
  -18.9020  -25.9500   -8.6450 O   0  0  0  0  0  0  0  0  0  0  0  0
  -16.7940  -26.1330   -9.6700 C   0  0  0  0  0  0  0  0  0  0  0  0
  -16.4610  -27.3330  -11.9440 C   0  0  0  0  0  0  0  0  0  0  0  0
  -15.1910  -26.7800  -11.9430 C   0  0  0  0  0  0  0  0  0  0  0  0
  -14.2580  -27.0950  -12.9280 C   0  0  0  0  0  0  0  0  0  0  0  0
  -14.6340  -28.0150  -13.9220 C   0  0  0  0  0  0  0  0  0  0  0  0
  -13.7100  -28.3570  -14.9140 C   0  0  0  0  0  0  0  0  0  0  0  0
  -14.0700  -29.2880  -15.9110 C   0  0  0  0  0  0  0  0  0  0  0  0
  -15.3480  -29.8520  -15.9110 C   0  0  0  0  0  0  0  0  0  0  0  0
  -16.2850  -29.5150  -14.9340 C   0  0  0  0  0  0  0  0  0  0  0  0
  -15.9090  -28.5950  -13.9290 C   0  0  0  0  0  0  0  0  0  0  0  0
  -16.8300  -28.2660  -12.9330 C   0  0  0  0  0  0  0  0  0  0  0  0
  -17.3310  -24.0640   -6.5590 O   0  0  0  0  0  0  0  0  0  0  0  0
  -18.0630  -23.5990   -6.9780 H   0  0  0  0  0  0  0  0  0  0  0  0
  -16.9250  -27.7050   -6.4520 O   0  0  0  0  0  0  0  0  0  0  0  0
  -16.8300  -27.5670   -5.5270 H   0  0  0  0  0  0  0  0  0  0  0  0
  -19.6920  -26.1800   -5.0570 O   0  0  0  0  0  0  0  0  0  0  0  0
  -19.4210  -27.0960   -5.0970 H   0  0  0  0  0  0  0  0  0  0  0  0
  -21.1860  -26.2660   -7.9600 C   0  0  0  0  0  0  0  0  0  0  0  0
  -22.0220  -26.2920   -6.8020 O   0  0  0  0  0  0  0  0  0  0  0  0
  -22.7480  -26.8820   -6.9890 H   0  0  0  0  0  0  0  0  0  0  0  0
  1 12  1  6  0  0  0
  1  2  1  0  0  0  0
  1 11  1  0  0  0  0
  2  3  1  0  0  0  0
  2  4  1  0  0  0  0
  4  5  1  0  0  0  0
  5 11  1  6  0  0  0
  6  5  1  6  0  0  0
  6 24  1  0  0  0  0
  6  7  1  0  0  0  0
  7 22  1  6  0  0  0
  8  7  1  0  0  0  0
  8 26  1  1  0  0  0
  9 28  1  6  0  0  0
  9  8  1  0  0  0  0
 10  5  1  0  0  0  0
 10  9  1  0  0  0  0
 12 13  1  0  0  0  0
 14 13  2  0  0  0  0
 15 14  1  0  0  0  0
 16 15  2  0  0  0  0
 17 18  2  0  0  0  0
 17 16  1  0  0  0  0
 18 19  1  0  0  0  0
 19 20  2  0  0  0  0
 20 15  1  0  0  0  0
 20 21  1  0  0  0  0
 21 12  2  0  0  0  0
 23 22  1  0  0  0  0
 24 25  1  0  0  0  0
 27 26  1  0  0  0  0
 28 29  1  0  0  0  0
 30 29  1  0  0  0  0
M  END
>  <minimizedAffinity>
-8.39540386

$$$$

 OpenBabel12271914533D

 30 33  0  0  1  0  0  0  0  0999 V2000
  -15.4390  -27.5150  -12.3950 C   0  0  1  0  0  0  0  0  0  0  0  0
  -16.5470  -27.2330  -13.3310 N   0  0  0  0  0  0  0  0  0  0  0  0
  -16.8000  -28.0970  -13.7720 H   0  0  0  0  0  0  0  0  0  0  0  0
  -15.7960  -26.6200  -14.5170 O   0  0  0  0  0  0  0  0  0  0  0  0
  -14.5330  -27.2930  -14.5550 C   0  0  2  0  0  0  0  0  0  0  0  0
  -13.5660  -26.5800  -15.5800 C   0  0  1  0  0  0  0  0  0  0  0  0
  -12.8890  -27.5880  -16.5530 C   0  0  2  0  0  0  0  0  0  0  0  0
  -13.8550  -28.6910  -17.0970 C   0  0  1  0  0  0  0  0  0  0  0  0
  -15.1380  -28.7890  -16.2310 C   0  0  2  0  0  0  0  0  0  0  0  0
  -14.7240  -28.6910  -14.8680 O   0  0  0  0  0  0  0  0  0  0  0  0
  -14.1160  -27.2020  -13.1530 C   0  0  0  0  0  0  0  0  0  0  0  0
  -15.6500  -26.7410  -11.1140 C   0  0  0  0  0  0  0  0  0  0  0  0
  -14.6200  -25.9280  -10.6710 C   0  0  0  0  0  0  0  0  0  0  0  0
  -14.7070  -25.2320   -9.4670 C   0  0  0  0  0  0  0  0  0  0  0  0
  -15.8880  -25.3580   -8.7160 C   0  0  0  0  0  0  0  0  0  0  0  0
  -16.0040  -24.6590   -7.5110 C   0  0  0  0  0  0  0  0  0  0  0  0
  -17.1890  -24.7680   -6.7530 C   0  0  0  0  0  0  0  0  0  0  0  0
  -18.2320  -25.5820   -7.2010 C   0  0  0  0  0  0  0  0  0  0  0  0
  -18.1290  -26.2930   -8.3960 C   0  0  0  0  0  0  0  0  0  0  0  0
  -16.9460  -26.1640   -9.1580 C   0  0  0  0  0  0  0  0  0  0  0  0
  -16.8390  -26.8540  -10.3670 C   0  0  0  0  0  0  0  0  0  0  0  0
  -11.7250  -28.1530  -15.9140 O   0  0  0  0  0  0  0  0  0  0  0  0
  -11.8810  -29.0880  -15.7460 H   0  0  0  0  0  0  0  0  0  0  0  0
  -14.3380  -25.6220  -16.3620 O   0  0  0  0  0  0  0  0  0  0  0  0
  -13.8690  -25.4220  -17.1520 H   0  0  0  0  0  0  0  0  0  0  0  0
  -14.1100  -28.3390  -18.4800 O   0  0  0  0  0  0  0  0  0  0  0  0
  -14.7020  -27.5890  -18.4680 H   0  0  0  0  0  0  0  0  0  0  0  0
  -15.9290  -30.0900  -16.4080 C   0  0  0  0  0  0  0  0  0  0  0  0
  -15.2270  -30.9890  -17.2700 O   0  0  0  0  0  0  0  0  0  0  0  0
  -15.8590  -31.3360  -17.8940 H   0  0  0  0  0  0  0  0  0  0  0  0
  1 12  1  1  0  0  0
  2  1  1  0  0  0  0
  3  2  1  0  0  0  0
  4  2  1  0  0  0  0
  5  4  1  0  0  0  0
  5 11  1  1  0  0  0
  6  5  1  1  0  0  0
  7 22  1  1  0  0  0
  7  6  1  0  0  0  0
  8 26  1  6  0  0  0
  8  7  1  0  0  0  0
  8  9  1  0  0  0  0
  9 28  1  1  0  0  0
  9 10  1  0  0  0  0
 10  5  1  0  0  0  0
 11  1  1  0  0  0  0
 12 13  2  0  0  0  0
 12 21  1  0  0  0  0
 13 14  1  0  0  0  0
 14 15  2  0  0  0  0
 15 16  1  0  0  0  0
 16 17  2  0  0  0  0
 18 17  1  0  0  0  0
 19 18  2  0  0  0  0
 20 15  1  0  0  0  0
 20 19  1  0  0  0  0
 21 20  2  0  0  0  0
 22 23  1  0  0  0  0
 24  6  1  0  0  0  0
 25 24  1  0  0  0  0
 26 27  1  0  0  0  0
 29 28  1  0  0  0  0
 30 29  1  0  0  0  0
M  END
>  <minimizedAffinity>
-8.31567478

$$$$

 OpenBabel12271914533D

 30 33  0  0  1  0  0  0  0  0999 V2000
  -18.4190  -27.4690  -11.0050 C   0  0  1  0  0  0  0  0  0  0  0  0
  -19.1300  -28.3800  -10.0840 N   0  0  0  0  0  0  0  0  0  0  0  0
  -19.9290  -27.8900   -9.7280 H   0  0  0  0  0  0  0  0  0  0  0  0
  -18.2610  -28.2810   -8.8270 O   0  0  0  0  0  0  0  0  0  0  0  0
  -17.7760  -26.9350   -8.8060 C   0  0  2  0  0  0  0  0  0  0  0  0
  -16.6670  -26.7720   -7.6930 C   0  0  1  0  0  0  0  0  0  0  0  0
  -16.9140  -25.5300   -6.7900 C   0  0  2  0  0  0  0  0  0  0  0  0
  -18.4090  -25.3350   -6.3740 C   0  0  1  0  0  0  0  0  0  0  0  0
  -19.3570  -26.1590   -7.2860 C   0  0  2  0  0  0  0  0  0  0  0  0
  -18.8730  -26.0130   -8.6210 O   0  0  0  0  0  0  0  0  0  0  0  0
  -17.2910  -26.7830  -10.1810 C   0  0  0  0  0  0  0  0  0  0  0  0
  -17.9570  -28.2390  -12.2210 C   0  0  0  0  0  0  0  0  0  0  0  0
  -18.8180  -29.1850  -12.7540 C   0  0  0  0  0  0  0  0  0  0  0  0
  -18.4450  -29.9840  -13.8320 C   0  0  0  0  0  0  0  0  0  0  0  0
  -17.1680  -29.7900  -14.3870 C   0  0  0  0  0  0  0  0  0  0  0  0
  -16.7760  -30.5710  -15.4780 C   0  0  0  0  0  0  0  0  0  0  0  0
  -15.5020  -30.3770  -16.0520 C   0  0  0  0  0  0  0  0  0  0  0  0
  -14.6350  -29.4200  -15.5200 C   0  0  0  0  0  0  0  0  0  0  0  0
  -15.0060  -28.6390  -14.4260 C   0  0  0  0  0  0  0  0  0  0  0  0
  -16.2920  -28.8260  -13.8700 C   0  0  0  0  0  0  0  0  0  0  0  0
  -16.6840  -28.0360  -12.7880 C   0  0  0  0  0  0  0  0  0  0  0  0
  -16.3750  -24.3590   -7.4370 O   0  0  0  0  0  0  0  0  0  0  0  0
  -17.0990  -23.7770   -7.6910 H   0  0  0  0  0  0  0  0  0  0  0  0
  -16.6660  -27.9660   -6.8570 O   0  0  0  0  0  0  0  0  0  0  0  0
  -16.2500  -27.7660   -6.0380 H   0  0  0  0  0  0  0  0  0  0  0  0
  -18.4780  -25.7080   -4.9740 O   0  0  0  0  0  0  0  0  0  0  0  0
  -18.4170  -26.6610   -4.9400 H   0  0  0  0  0  0  0  0  0  0  0  0
  -20.8240  -25.7160   -7.2460 C   0  0  0  0  0  0  0  0  0  0  0  0
  -21.4210  -26.0750   -5.9990 O   0  0  0  0  0  0  0  0  0  0  0  0
  -22.2680  -26.4670   -6.1920 H   0  0  0  0  0  0  0  0  0  0  0  0
  1 12  1  6  0  0  0
  1 11  1  0  0  0  0
  1  2  1  0  0  0  0
  2  3  1  0  0  0  0
  2  4  1  0  0  0  0
  4  5  1  0  0  0  0
  5 11  1  6  0  0  0
  5 10  1  0  0  0  0
  6  5  1  6  0  0  0
  6 24  1  0  0  0  0
  6  7  1  0  0  0  0
  7 22  1  6  0  0  0
  7  8  1  0  0  0  0
  8 26  1  1  0  0  0
  9 28  1  6  0  0  0
  9  8  1  0  0  0  0
 10  9  1  0  0  0  0
 13 12  1  0  0  0  0
 14 13  2  0  0  0  0
 15 20  1  0  0  0  0
 15 14  1  0  0  0  0
 16 15  2  0  0  0  0
 17 18  2  0  0  0  0
 17 16  1  0  0  0  0
 18 19  1  0  0  0  0
 19 20  2  0  0  0  0
 20 21  1  0  0  0  0
 21 12  2  0  0  0  0
 23 22  1  0  0  0  0
 24 25  1  0  0  0  0
 26 27  1  0  0  0  0
 28 29  1  0  0  0  0
 30 29  1  0  0  0  0
M  END
>  <minimizedAffinity>
-8.18185616

$$$$

 OpenBabel12271914533D

 30 33  0  0  1  0  0  0  0  0999 V2000
  -19.5850  -26.8240   -9.7230 C   0  0  1  0  0  0  0  0  0  0  0  0
  -20.1760  -26.3160  -10.9790 N   0  0  0  0  0  0  0  0  0  0  0  0
  -21.0800  -25.9410  -10.7610 H   0  0  0  0  0  0  0  0  0  0  0  0
  -20.6560  -27.6140  -11.6360 O   0  0  0  0  0  0  0  0  0  0  0  0
  -21.0550  -28.4620  -10.5540 C   0  0  2  0  0  0  0  0  0  0  0  0
  -21.3370  -29.9240  -11.0820 C   0  0  1  0  0  0  0  0  0  0  0  0
  -22.6950  -30.4840  -10.5710 C   0  0  2  0  0  0  0  0  0  0  0  0
  -23.8660  -29.4480  -10.6120 C   0  0  1  0  0  0  0  0  0  0  0  0
  -23.3270  -27.9990  -10.7460 C   0  0  2  0  0  0  0  0  0  0  0  0
  -22.1990  -27.8970   -9.8760 O   0  0  0  0  0  0  0  0  0  0  0  0
  -19.9020  -28.3460   -9.6580 C   0  0  0  0  0  0  0  0  0  0  0  0
  -18.1180  -26.4640   -9.6740 C   0  0  0  0  0  0  0  0  0  0  0  0
  -17.5150  -26.0430  -10.8480 C   0  0  0  0  0  0  0  0  0  0  0  0
  -16.1530  -25.7550  -10.9060 C   0  0  0  0  0  0  0  0  0  0  0  0
  -15.4020  -25.8820   -9.7240 C   0  0  0  0  0  0  0  0  0  0  0  0
  -14.0360  -25.5860   -9.7540 C   0  0  0  0  0  0  0  0  0  0  0  0
  -13.2730  -25.6980   -8.5720 C   0  0  0  0  0  0  0  0  0  0  0  0
  -13.8800  -26.1160   -7.3860 C   0  0  0  0  0  0  0  0  0  0  0  0
  -15.2400  -26.4230   -7.3410 C   0  0  0  0  0  0  0  0  0  0  0  0
  -16.0000  -26.2910   -8.5250 C   0  0  0  0  0  0  0  0  0  0  0  0
  -17.3660  -26.5760   -8.4890 C   0  0  0  0  0  0  0  0  0  0  0  0
  -22.5110  -31.0430   -9.2530 O   0  0  0  0  0  0  0  0  0  0  0  0
  -22.9890  -30.5040   -8.6140 H   0  0  0  0  0  0  0  0  0  0  0  0
  -21.3610  -29.8970  -12.5400 O   0  0  0  0  0  0  0  0  0  0  0  0
  -21.8160  -30.6580  -12.8520 H   0  0  0  0  0  0  0  0  0  0  0  0
  -24.7140  -29.8590  -11.7140 O   0  0  0  0  0  0  0  0  0  0  0  0
  -24.2530  -29.6230  -12.5180 H   0  0  0  0  0  0  0  0  0  0  0  0
  -24.3350  -26.9070  -10.3680 C   0  0  0  0  0  0  0  0  0  0  0  0
  -25.4250  -26.8920  -11.2930 O   0  0  0  0  0  0  0  0  0  0  0  0
  -25.5820  -25.9820  -11.5320 H   0  0  0  0  0  0  0  0  0  0  0  0
  1 12  1  6  0  0  0
  1 11  1  0  0  0  0
  2  3  1  0  0  0  0
  2  1  1  0  0  0  0
  4  2  1  0  0  0  0
  4  5  1  0  0  0  0
  5 10  1  0  0  0  0
  5 11  1  1  0  0  0
  6  7  1  0  0  0  0
  6  5  1  1  0  0  0
  7 22  1  1  0  0  0
  8 26  1  6  0  0  0
  8  7  1  0  0  0  0
  9  8  1  0  0  0  0
  9 28  1  1  0  0  0
  9 10  1  0  0  0  0
 12 21  2  0  0  0  0
 13 12  1  0  0  0  0
 14 13  2  0  0  0  0
 14 15  1  0  0  0  0
 15 20  1  0  0  0  0
 16 15  2  0  0  0  0
 16 17  1  0  0  0  0
 17 18  2  0  0  0  0
 18 19  1  0  0  0  0
 20 21  1  0  0  0  0
 20 19  2  0  0  0  0
 22 23  1  0  0  0  0
 24  6  1  0  0  0  0
 25 24  1  0  0  0  0
 27 26  1  0  0  0  0
 29 28  1  0  0  0  0
 30 29  1  0  0  0  0
M  END
>  <minimizedAffinity>
-8.10995197

$$$$

 OpenBabel12271914533D

 30 33  0  0  1  0  0  0  0  0999 V2000
  -19.2320  -27.9700   -9.6650 C   0  0  1  0  0  0  0  0  0  0  0  0
  -20.4150  -27.5340   -8.8940 N   0  0  0  0  0  0  0  0  0  0  0  0
  -20.9940  -28.3380   -8.7450 H   0  0  0  0  0  0  0  0  0  0  0  0
  -21.2660  -26.8800   -9.9880 O   0  0  0  0  0  0  0  0  0  0  0  0
  -21.0050  -27.6370  -11.1740 C   0  0  2  0  0  0  0  0  0  0  0  0
  -21.6300  -26.9130  -12.4310 C   0  0  1  0  0  0  0  0  0  0  0  0
  -22.4610  -27.8830  -13.3200 C   0  0  2  0  0  0  0  0  0  0  0  0
  -23.3680  -28.8660  -12.5090 C   0  0  1  0  0  0  0  0  0  0  0  0
  -22.9250  -28.9430  -11.0240 C   0  0  2  0  0  0  0  0  0  0  0  0
  -21.4970  -28.9870  -11.0230 O   0  0  0  0  0  0  0  0  0  0  0  0
  -19.5410  -27.6910  -11.1640 C   0  0  0  0  0  0  0  0  0  0  0  0
  -17.9960  -27.2910   -9.1190 C   0  0  0  0  0  0  0  0  0  0  0  0
  -18.1650  -26.1180   -8.4030 C   0  0  0  0  0  0  0  0  0  0  0  0
  -17.0760  -25.3940   -7.9220 C   0  0  0  0  0  0  0  0  0  0  0  0
  -15.7880  -25.9010   -8.1660 C   0  0  0  0  0  0  0  0  0  0  0  0
  -14.6800  -25.1990   -7.6820 C   0  0  0  0  0  0  0  0  0  0  0  0
  -13.3820  -25.7040   -7.9090 C   0  0  0  0  0  0  0  0  0  0  0  0
  -13.2100  -26.8900   -8.6260 C   0  0  0  0  0  0  0  0  0  0  0  0
  -14.3040  -27.5980   -9.1230 C   0  0  0  0  0  0  0  0  0  0  0  0
  -15.6010  -27.0950   -8.8750 C   0  0  0  0  0  0  0  0  0  0  0  0
  -16.7050  -27.8050   -9.3490 C   0  0  0  0  0  0  0  0  0  0  0  0
  -21.5730  -28.5800  -14.2180 O   0  0  0  0  0  0  0  0  0  0  0  0
  -21.5510  -29.5130  -13.9770 H   0  0  0  0  0  0  0  0  0  0  0  0
  -22.5020  -25.8410  -11.9670 O   0  0  0  0  0  0  0  0  0  0  0  0
  -23.0990  -25.6110  -12.6560 H   0  0  0  0  0  0  0  0  0  0  0  0
  -24.7240  -28.3840  -12.6880 O   0  0  0  0  0  0  0  0  0  0  0  0
  -24.8090  -27.5970  -12.1520 H   0  0  0  0  0  0  0  0  0  0  0  0
  -23.4520  -30.1650  -10.2640 C   0  0  0  0  0  0  0  0  0  0  0  0
  -22.3820  -30.8390   -9.5980 O   0  0  0  0  0  0  0  0  0  0  0  0
  -22.4820  -31.7720   -9.7700 H   0  0  0  0  0  0  0  0  0  0  0  0
  1 12  1  1  0  0  0
  1  2  1  0  0  0  0
  2  3  1  0  0  0  0
  4  2  1  0  0  0  0
  5 11  1  6  0  0  0
  5 10  1  0  0  0  0
  5  4  1  0  0  0  0
  6 24  1  0  0  0  0
  6  5  1  1  0  0  0
  7 22  1  1  0  0  0
  7  8  1  0  0  0  0
  7  6  1  0  0  0  0
  8 26  1  1  0  0  0
  8  9  1  0  0  0  0
  9 10  1  0  0  0  0
  9 28  1  6  0  0  0
 11  1  1  0  0  0  0
 12 13  1  0  0  0  0
 13 14  2  0  0  0  0
 15 14  1  0  0  0  0
 15 16  2  0  0  0  0
 17 16  1  0  0  0  0
 18 17  2  0  0  0  0
 19 20  2  0  0  0  0
 19 18  1  0  0  0  0
 20 15  1  0  0  0  0
 21 12  2  0  0  0  0
 21 20  1  0  0  0  0
 22 23  1  0  0  0  0
 25 24  1  0  0  0  0
 26 27  1  0  0  0  0
 28 29  1  0  0  0  0
 30 29  1  0  0  0  0
M  END
>  <minimizedAffinity>
-8.07383919

$$$$
