
 OpenBabel12271914533D

 30 33  0  0  1  0  0  0  0  0999 V2000
  -25.1790  -25.2710   -4.0940 C   0  0  1  0  0  0  0  0  0  0  0  0
  -24.4910  -26.5460   -3.9410 N   0  0  0  0  0  0  0  0  0  0  0  0
  -25.1720  -27.3200   -3.8870 H   0  0  0  0  0  0  0  0  0  0  0  0
  -23.7440  -26.7840   -5.1140 O   0  0  0  0  0  0  0  0  0  0  0  0
  -24.2590  -25.9760   -6.1710 C   0  0  2  0  0  0  0  0  0  0  0  0
  -24.7840  -26.8840   -7.2970 C   0  0  1  0  0  0  0  0  0  0  0  0
  -24.0690  -26.7760   -8.6410 C   0  0  2  0  0  0  0  0  0  0  0  0
  -22.6310  -26.2340   -8.5860 C   0  0  1  0  0  0  0  0  0  0  0  0
  -22.1870  -25.9850   -7.1590 C   0  0  2  0  0  0  0  0  0  0  0  0
  -23.1770  -25.1480   -6.5660 O   0  0  0  0  0  0  0  0  0  0  0  0
  -25.3310  -25.0810   -5.5850 C   0  0  0  0  0  0  0  0  0  0  0  0
  -26.5130  -25.2840   -3.3920 C   0  0  0  0  0  0  0  0  0  0  0  0
  -27.3790  -26.3740   -3.5000 C   0  0  0  0  0  0  0  0  0  0  0  0
  -28.5960  -26.4080   -2.8520 C   0  0  0  0  0  0  0  0  0  0  0  0
  -28.9960  -25.3210   -2.0750 C   0  0  0  0  0  0  0  0  0  0  0  0
  -30.2140  -25.3310   -1.4160 C   0  0  0  0  0  0  0  0  0  0  0  0
  -30.6090  -24.2390   -0.6560 C   0  0  0  0  0  0  0  0  0  0  0  0
  -29.7770  -23.1380   -0.5410 C   0  0  0  0  0  0  0  0  0  0  0  0
  -28.5550  -23.1120   -1.1830 C   0  0  0  0  0  0  0  0  0  0  0  0
  -28.1480  -24.2020   -1.9660 C   0  0  0  0  0  0  0  0  0  0  0  0
  -26.9250  -24.1950   -2.6180 C   0  0  0  0  0  0  0  0  0  0  0  0
  -24.8520  -25.9700   -9.5240 O   0  0  0  0  0  0  0  0  0  0  0  0
  -25.6910  -26.4530   -9.7140 H   0  0  0  0  0  0  0  0  0  0  0  0
  -24.8470  -28.2540   -6.8890 O   0  0  0  0  0  0  0  0  0  0  0  0
  -23.9770  -28.6870   -7.0090 H   0  0  0  0  0  0  0  0  0  0  0  0
  -21.7380  -27.1330   -9.2280 O   0  0  0  0  0  0  0  0  0  0  0  0
  -21.5000  -27.8690   -8.6340 H   0  0  0  0  0  0  0  0  0  0  0  0
  -20.7960  -25.3590   -7.0080 C   0  0  0  0  0  0  0  0  0  0  0  0
  -20.1790  -25.9780   -5.8780 O   0  0  0  0  0  0  0  0  0  0  0  0
  -20.8510  -26.0810   -5.1660 H   0  0  0  0  0  0  0  0  0  0  0  0
  1  2  1  0  0  0  0
  1 12  1  1  0  0  0
  2  3  1  0  0  0  0
  4  2  1  0  0  0  0
  5 11  1  1  0  0  0
  5  4  1  0  0  0  0
  6 24  1  0  0  0  0
  6  5  1  1  0  0  0
  7 22  1  6  0  0  0
  7  8  1  0  0  0  0
  7  6  1  0  0  0  0
  8 26  1  1  0  0  0
  8  9  1  0  0  0  0
  9 28  1  6  0  0  0
  9 10  1  0  0  0  0
 10  5  1  0  0  0  0
 11  1  1  0  0  0  0
 12 21  1  0  0  0  0
 13 12  2  0  0  0  0
 13 14  1  0  0  0  0
 14 15  2  0  0  0  0
 15 20  1  0  0  0  0
 15 16  1  0  0  0  0
 16 17  2  0  0  0  0
 17 18  1  0  0  0  0
 19 18  2  0  0  0  0
 20 19  1  0  0  0  0
 21 20  2  0  0  0  0
 23 22  1  0  0  0  0
 25 24  1  0  0  0  0
 26 27  1  0  0  0  0
 28 29  1  0  0  0  0
 29 30  1  0  0  0  0
M  END
>  <minimizedAffinity>
-9.47869396

$$$$

 OpenBabel12271914533D

 30 33  0  0  1  0  0  0  0  0999 V2000
  -14.7110  -25.7710  -11.7080 C   0  0  1  0  0  0  0  0  0  0  0  0
  -13.3550  -25.6980  -12.2370 N   0  0  0  0  0  0  0  0  0  0  0  0
  -12.7460  -26.3850  -11.7650 H   0  0  0  0  0  0  0  0  0  0  0  0
  -13.3910  -26.0950  -13.5900 O   0  0  0  0  0  0  0  0  0  0  0  0
  -14.5870  -26.8370  -13.8300 C   0  0  2  0  0  0  0  0  0  0  0  0
  -14.2200  -28.2660  -14.2670 C   0  0  1  0  0  0  0  0  0  0  0  0
  -14.6390  -28.6700  -15.6770 C   0  0  2  0  0  0  0  0  0  0  0  0
  -14.8610  -27.5100  -16.6620 C   0  0  1  0  0  0  0  0  0  0  0  0
  -14.5320  -26.1740  -16.0270 C   0  0  2  0  0  0  0  0  0  0  0  0
  -15.2870  -26.1020  -14.8210 O   0  0  0  0  0  0  0  0  0  0  0  0
  -15.4130  -26.8000  -12.5610 C   0  0  0  0  0  0  0  0  0  0  0  0
  -14.7060  -26.1600  -10.2500 C   0  0  0  0  0  0  0  0  0  0  0  0
  -13.5900  -26.7600   -9.6630 C   0  0  0  0  0  0  0  0  0  0  0  0
  -13.5630  -27.1080   -8.3300 C   0  0  0  0  0  0  0  0  0  0  0  0
  -14.6860  -26.8770   -7.5330 C   0  0  0  0  0  0  0  0  0  0  0  0
  -14.6840  -27.2190   -6.1910 C   0  0  0  0  0  0  0  0  0  0  0  0
  -15.8090  -26.9980   -5.4100 C   0  0  0  0  0  0  0  0  0  0  0  0
  -16.9360  -26.4180   -5.9680 C   0  0  0  0  0  0  0  0  0  0  0  0
  -16.9540  -26.0610   -7.3010 C   0  0  0  0  0  0  0  0  0  0  0  0
  -15.8290  -26.2910   -8.1070 C   0  0  0  0  0  0  0  0  0  0  0  0
  -15.8290  -25.9400   -9.4480 C   0  0  0  0  0  0  0  0  0  0  0  0
  -15.8230  -29.4680  -15.6030 O   0  0  0  0  0  0  0  0  0  0  0  0
  -15.5930  -30.3130  -15.1480 H   0  0  0  0  0  0  0  0  0  0  0  0
  -12.8280  -28.5390  -14.0780 O   0  0  0  0  0  0  0  0  0  0  0  0
  -12.3090  -28.2210  -14.8450 H   0  0  0  0  0  0  0  0  0  0  0  0
  -14.0820  -27.7010  -17.8350 O   0  0  0  0  0  0  0  0  0  0  0  0
  -13.1590  -27.4210  -17.6880 H   0  0  0  0  0  0  0  0  0  0  0  0
  -14.8070  -24.9490  -16.9060 C   0  0  0  0  0  0  0  0  0  0  0  0
  -16.2060  -24.9470  -17.1950 O   0  0  0  0  0  0  0  0  0  0  0  0
  -16.4950  -25.8700  -17.3760 H   0  0  0  0  0  0  0  0  0  0  0  0
  1 12  1  1  0  0  0
  2  3  1  0  0  0  0
  2  1  1  0  0  0  0
  4  2  1  0  0  0  0
  5  4  1  0  0  0  0
  5 11  1  1  0  0  0
  6 24  1  0  0  0  0
  6  5  1  6  0  0  0
  7 22  1  1  0  0  0
  7  6  1  0  0  0  0
  8 26  1  6  0  0  0
  8  9  1  0  0  0  0
  8  7  1  0  0  0  0
  9 28  1  6  0  0  0
  9 10  1  0  0  0  0
 10  5  1  0  0  0  0
 11  1  1  0  0  0  0
 12 13  2  0  0  0  0
 12 21  1  0  0  0  0
 13 14  1  0  0  0  0
 14 15  2  0  0  0  0
 15 16  1  0  0  0  0
 16 17  2  0  0  0  0
 18 17  1  0  0  0  0
 19 18  2  0  0  0  0
 20 15  1  0  0  0  0
 20 19  1  0  0  0  0
 21 20  2  0  0  0  0
 22 23  1  0  0  0  0
 25 24  1  0  0  0  0
 26 27  1  0  0  0  0
 29 28  1  0  0  0  0
 30 29  1  0  0  0  0
M  END
>  <minimizedAffinity>
-9.07515812

$$$$

 OpenBabel12271914533D

 30 33  0  0  1  0  0  0  0  0999 V2000
  -15.0890  -25.9670   -9.5890 C   0  0  1  0  0  0  0  0  0  0  0  0
  -14.4980  -27.2040  -10.0840 N   0  0  0  0  0  0  0  0  0  0  0  0
  -15.0300  -28.0200   -9.7440 H   0  0  0  0  0  0  0  0  0  0  0  0
  -14.6350  -27.2240  -11.4880 O   0  0  0  0  0  0  0  0  0  0  0  0
  -15.6610  -26.3090  -11.8730 C   0  0  2  0  0  0  0  0  0  0  0  0
  -16.7970  -27.0810  -12.5660 C   0  0  1  0  0  0  0  0  0  0  0  0
  -17.0530  -26.7370  -14.0300 C   0  0  2  0  0  0  0  0  0  0  0  0
  -15.8650  -26.1150  -14.7830 C   0  0  1  0  0  0  0  0  0  0  0  0
  -14.6310  -26.0420  -13.9060 C   0  0  2  0  0  0  0  0  0  0  0  0
  -15.0190  -25.3650  -12.7140 O   0  0  0  0  0  0  0  0  0  0  0  0
  -16.1160  -25.5790  -10.6260 C   0  0  0  0  0  0  0  0  0  0  0  0
  -15.7130  -26.1680   -8.2310 C   0  0  0  0  0  0  0  0  0  0  0  0
  -16.9310  -25.5730   -7.8970 C   0  0  0  0  0  0  0  0  0  0  0  0
  -17.5220  -25.7590   -6.6650 C   0  0  0  0  0  0  0  0  0  0  0  0
  -16.8860  -26.5480   -5.7050 C   0  0  0  0  0  0  0  0  0  0  0  0
  -17.4590  -26.7470   -4.4600 C   0  0  0  0  0  0  0  0  0  0  0  0
  -16.8130  -27.5230   -3.5080 C   0  0  0  0  0  0  0  0  0  0  0  0
  -15.5960  -28.1130   -3.8060 C   0  0  0  0  0  0  0  0  0  0  0  0
  -15.0130  -27.9340   -5.0440 C   0  0  0  0  0  0  0  0  0  0  0  0
  -15.6470  -27.1410   -6.0120 C   0  0  0  0  0  0  0  0  0  0  0  0
  -15.0780  -26.9500   -7.2610 C   0  0  0  0  0  0  0  0  0  0  0  0
  -18.1830  -25.8660  -14.1170 O   0  0  0  0  0  0  0  0  0  0  0  0
  -18.9790  -26.3720  -13.8250 H   0  0  0  0  0  0  0  0  0  0  0  0
  -16.6460  -28.4960  -12.4180 O   0  0  0  0  0  0  0  0  0  0  0  0
  -16.0480  -28.8500  -13.1080 H   0  0  0  0  0  0  0  0  0  0  0  0
  -15.5850  -26.8540  -15.9640 O   0  0  0  0  0  0  0  0  0  0  0  0
  -15.0590  -27.6490  -15.7590 H   0  0  0  0  0  0  0  0  0  0  0  0
  -13.4180  -25.3540  -14.5430 C   0  0  0  0  0  0  0  0  0  0  0  0
  -12.7270  -26.3460  -15.3050 O   0  0  0  0  0  0  0  0  0  0  0  0
  -12.7180  -27.1880  -14.7970 H   0  0  0  0  0  0  0  0  0  0  0  0
  1 12  1  1  0  0  0
  2  3  1  0  0  0  0
  2  1  1  0  0  0  0
  4  2  1  0  0  0  0
  5  4  1  0  0  0  0
  5 11  1  1  0  0  0
  6 24  1  0  0  0  0
  6  5  1  6  0  0  0
  7 22  1  1  0  0  0
  7  6  1  0  0  0  0
  8 26  1  6  0  0  0
  8  7  1  0  0  0  0
  8  9  1  0  0  0  0
  9 28  1  6  0  0  0
  9 10  1  0  0  0  0
 10  5  1  0  0  0  0
 11  1  1  0  0  0  0
 12 13  2  0  0  0  0
 12 21  1  0  0  0  0
 13 14  1  0  0  0  0
 14 15  2  0  0  0  0
 15 16  1  0  0  0  0
 16 17  2  0  0  0  0
 18 17  1  0  0  0  0
 19 18  2  0  0  0  0
 20 15  1  0  0  0  0
 20 19  1  0  0  0  0
 21 20  2  0  0  0  0
 22 23  1  0  0  0  0
 25 24  1  0  0  0  0
 26 27  1  0  0  0  0
 29 30  1  0  0  0  0
 29 28  1  0  0  0  0
M  END
>  <minimizedAffinity>
-9.05119038

$$$$

 OpenBabel12271914533D

 30 33  0  0  1  0  0  0  0  0999 V2000
  -22.0790  -25.8850   -7.8550 C   0  0  1  0  0  0  0  0  0  0  0  0
  -22.9760  -26.9730   -8.2240 N   0  0  0  0  0  0  0  0  0  0  0  0
  -22.5630  -27.8830   -7.9660 H   0  0  0  0  0  0  0  0  0  0  0  0
  -24.1480  -26.8570   -7.4490 O   0  0  0  0  0  0  0  0  0  0  0  0
  -23.8770  -26.0460   -6.3060 C   0  0  2  0  0  0  0  0  0  0  0  0
  -24.0910  -26.8770   -5.0290 C   0  0  1  0  0  0  0  0  0  0  0  0
  -25.2070  -26.4100   -4.0990 C   0  0  2  0  0  0  0  0  0  0  0  0
  -26.3080  -25.5620   -4.7550 C   0  0  1  0  0  0  0  0  0  0  0  0
  -26.0870  -25.4270   -6.2480 C   0  0  2  0  0  0  0  0  0  0  0  0
  -24.7580  -24.9400   -6.4190 O   0  0  0  0  0  0  0  0  0  0  0  0
  -22.4620  -25.5210   -6.4400 C   0  0  0  0  0  0  0  0  0  0  0  0
  -20.6360  -26.3120   -7.9520 C   0  0  0  0  0  0  0  0  0  0  0  0
  -20.1450  -26.9590   -9.0880 C   0  0  0  0  0  0  0  0  0  0  0  0
  -18.8260  -27.3420   -9.1990 C   0  0  0  0  0  0  0  0  0  0  0  0
  -17.9440  -27.0980   -8.1450 C   0  0  0  0  0  0  0  0  0  0  0  0
  -16.6150  -27.4750   -8.2320 C   0  0  0  0  0  0  0  0  0  0  0  0
  -15.7480  -27.2400   -7.1740 C   0  0  0  0  0  0  0  0  0  0  0  0
  -16.2100  -26.6120   -6.0280 C   0  0  0  0  0  0  0  0  0  0  0  0
  -17.5290  -26.2200   -5.9260 C   0  0  0  0  0  0  0  0  0  0  0  0
  -18.4200  -26.4640   -6.9820 C   0  0  0  0  0  0  0  0  0  0  0  0
  -19.7480  -26.0780   -6.8970 C   0  0  0  0  0  0  0  0  0  0  0  0
  -24.6330  -25.6890   -3.0060 O   0  0  0  0  0  0  0  0  0  0  0  0
  -24.0960  -26.3220   -2.4720 H   0  0  0  0  0  0  0  0  0  0  0  0
  -24.2520  -28.2680   -5.3220 O   0  0  0  0  0  0  0  0  0  0  0  0
  -25.1850  -28.4640   -5.5490 H   0  0  0  0  0  0  0  0  0  0  0  0
  -27.5870  -26.1240   -4.4970 O   0  0  0  0  0  0  0  0  0  0  0  0
  -27.7700  -26.8630   -5.1080 H   0  0  0  0  0  0  0  0  0  0  0  0
  -27.0870  -24.5220   -6.9770 C   0  0  0  0  0  0  0  0  0  0  0  0
  -28.1900  -25.3440   -7.3620 O   0  0  0  0  0  0  0  0  0  0  0  0
  -27.8450  -26.2090   -7.6840 H   0  0  0  0  0  0  0  0  0  0  0  0
  1 12  1  1  0  0  0
  1 11  1  0  0  0  0
  2  3  1  0  0  0  0
  2  1  1  0  0  0  0
  2  4  1  0  0  0  0
  4  5  1  0  0  0  0
  5 11  1  6  0  0  0
  6  5  1  6  0  0  0
  6  7  1  0  0  0  0
  7 22  1  1  0  0  0
  8 26  1  6  0  0  0
  8  7  1  0  0  0  0
  9 28  1  1  0  0  0
  9  8  1  0  0  0  0
 10  5  1  0  0  0  0
 10  9  1  0  0  0  0
 12 21  2  0  0  0  0
 13 12  1  0  0  0  0
 14 13  2  0  0  0  0
 14 15  1  0  0  0  0
 15 20  1  0  0  0  0
 16 15  2  0  0  0  0
 16 17  1  0  0  0  0
 17 18  2  0  0  0  0
 18 19  1  0  0  0  0
 20 21  1  0  0  0  0
 20 19  2  0  0  0  0
 22 23  1  0  0  0  0
 24  6  1  0  0  0  0
 25 24  1  0  0  0  0
 27 26  1  0  0  0  0
 29 28  1  0  0  0  0
 30 29  1  0  0  0  0
M  END
>  <minimizedAffinity>
-8.79243755

$$$$

 OpenBabel12271914533D

 30 33  0  0  1  0  0  0  0  0999 V2000
  -19.3060  -26.4630   -7.4600 C   0  0  1  0  0  0  0  0  0  0  0  0
  -19.5890  -25.2810   -6.6550 N   0  0  0  0  0  0  0  0  0  0  0  0
  -19.1860  -24.4390   -7.0960 H   0  0  0  0  0  0  0  0  0  0  0  0
  -20.9840  -25.0750   -6.6540 O   0  0  0  0  0  0  0  0  0  0  0  0
  -21.5630  -25.7710   -7.7580 C   0  0  2  0  0  0  0  0  0  0  0  0
  -22.2340  -24.7590   -8.7020 C   0  0  1  0  0  0  0  0  0  0  0  0
  -23.7460  -24.8850   -8.8630 C   0  0  2  0  0  0  0  0  0  0  0  0
  -24.4800  -25.5870   -7.7090 C   0  0  1  0  0  0  0  0  0  0  0  0
  -23.5290  -25.9510   -6.5870 C   0  0  2  0  0  0  0  0  0  0  0  0
  -22.4690  -26.6960   -7.1800 O   0  0  0  0  0  0  0  0  0  0  0  0
  -20.4600  -26.5650   -8.4290 C   0  0  0  0  0  0  0  0  0  0  0  0
  -17.9850  -26.3310   -8.1750 C   0  0  0  0  0  0  0  0  0  0  0  0
  -17.9190  -26.2460   -9.5670 C   0  0  0  0  0  0  0  0  0  0  0  0
  -16.7200  -26.1100  -10.2350 C   0  0  0  0  0  0  0  0  0  0  0  0
  -15.5270  -26.0720   -9.5130 C   0  0  0  0  0  0  0  0  0  0  0  0
  -14.3110  -25.9380  -10.1620 C   0  0  0  0  0  0  0  0  0  0  0  0
  -13.1280  -25.9150   -9.4360 C   0  0  0  0  0  0  0  0  0  0  0  0
  -13.1620  -26.0120   -8.0540 C   0  0  0  0  0  0  0  0  0  0  0  0
  -14.3640  -26.1370   -7.3890 C   0  0  0  0  0  0  0  0  0  0  0  0
  -15.5670  -26.1760   -8.1100 C   0  0  0  0  0  0  0  0  0  0  0  0
  -16.7840  -26.3010   -7.4590 C   0  0  0  0  0  0  0  0  0  0  0  0
  -24.0320  -25.5560  -10.0920 O   0  0  0  0  0  0  0  0  0  0  0  0
  -23.7380  -24.9730  -10.8330 H   0  0  0  0  0  0  0  0  0  0  0  0
  -21.8920  -23.4110   -8.3660 O   0  0  0  0  0  0  0  0  0  0  0  0
  -22.4820  -23.0730   -7.6610 H   0  0  0  0  0  0  0  0  0  0  0  0
  -25.5300  -24.7660   -7.2170 O   0  0  0  0  0  0  0  0  0  0  0  0
  -25.1830  -24.0900   -6.6050 H   0  0  0  0  0  0  0  0  0  0  0  0
  -24.1550  -26.7360   -5.4290 C   0  0  0  0  0  0  0  0  0  0  0  0
  -24.7530  -25.7810   -4.5510 O   0  0  0  0  0  0  0  0  0  0  0  0
  -24.1530  -25.0040   -4.4710 H   0  0  0  0  0  0  0  0  0  0  0  0
  1 12  1  6  0  0  0
  1  2  1  0  0  0  0
  2  4  1  0  0  0  0
  3  2  1  0  0  0  0
  5 11  1  6  0  0  0
  5 10  1  0  0  0  0
  5  4  1  0  0  0  0
  6 24  1  0  0  0  0
  6  5  1  1  0  0  0
  7 22  1  6  0  0  0
  7  6  1  0  0  0  0
  7  8  1  0  0  0  0
  8 26  1  1  0  0  0
  8  9  1  0  0  0  0
  9 28  1  1  0  0  0
 10  9  1  0  0  0  0
 11  1  1  0  0  0  0
 12 21  2  0  0  0  0
 13 12  1  0  0  0  0
 14 13  2  0  0  0  0
 14 15  1  0  0  0  0
 15 20  1  0  0  0  0
 16 15  2  0  0  0  0
 16 17  1  0  0  0  0
 17 18  2  0  0  0  0
 18 19  1  0  0  0  0
 20 21  1  0  0  0  0
 20 19  2  0  0  0  0
 23 22  1  0  0  0  0
 24 25  1  0  0  0  0
 26 27  1  0  0  0  0
 28 29  1  0  0  0  0
 29 30  1  0  0  0  0
M  END
>  <minimizedAffinity>
-8.78817749

$$$$

 OpenBabel12271914533D

 30 33  0  0  1  0  0  0  0  0999 V2000
  -14.9600  -25.5770  -11.0110 C   0  0  1  0  0  0  0  0  0  0  0  0
  -14.3190  -26.8740  -11.1920 N   0  0  0  0  0  0  0  0  0  0  0  0
  -14.8870  -27.6210  -10.7620 H   0  0  0  0  0  0  0  0  0  0  0  0
  -14.2990  -27.1630  -12.5730 O   0  0  0  0  0  0  0  0  0  0  0  0
  -15.2740  -26.3590  -13.2360 C   0  0  2  0  0  0  0  0  0  0  0  0
  -16.3280  -27.2710  -13.8880 C   0  0  1  0  0  0  0  0  0  0  0  0
  -16.4180  -27.2170  -15.4110 C   0  0  2  0  0  0  0  0  0  0  0  0
  -15.1530  -26.7270  -16.1330 C   0  0  1  0  0  0  0  0  0  0  0  0
  -14.0240  -26.4640  -15.1570 C   0  0  2  0  0  0  0  0  0  0  0  0
  -14.5410  -25.5800  -14.1670 O   0  0  0  0  0  0  0  0  0  0  0  0
  -15.8650  -25.4130  -12.2090 C   0  0  0  0  0  0  0  0  0  0  0  0
  -15.7310  -25.5280   -9.7160 C   0  0  0  0  0  0  0  0  0  0  0  0
  -15.1550  -25.0270   -8.5470 C   0  0  0  0  0  0  0  0  0  0  0  0
  -15.8510  -24.9610   -7.3590 C   0  0  0  0  0  0  0  0  0  0  0  0
  -17.1670  -25.4210   -7.3030 C   0  0  0  0  0  0  0  0  0  0  0  0
  -17.8860  -25.3660   -6.1200 C   0  0  0  0  0  0  0  0  0  0  0  0
  -19.1900  -25.8380   -6.0700 C   0  0  0  0  0  0  0  0  0  0  0  0
  -19.7840  -26.3530   -7.2110 C   0  0  0  0  0  0  0  0  0  0  0  0
  -19.0870  -26.4080   -8.4010 C   0  0  0  0  0  0  0  0  0  0  0  0
  -17.7630  -25.9480   -8.4630 C   0  0  0  0  0  0  0  0  0  0  0  0
  -17.0470  -25.9940   -9.6490 C   0  0  0  0  0  0  0  0  0  0  0  0
  -17.5300  -26.4020  -15.7850 O   0  0  0  0  0  0  0  0  0  0  0  0
  -18.3550  -26.8580  -15.4910 H   0  0  0  0  0  0  0  0  0  0  0  0
  -16.1960  -28.6290  -13.4570 O   0  0  0  0  0  0  0  0  0  0  0  0
  -15.5260  -29.0960  -13.9970 H   0  0  0  0  0  0  0  0  0  0  0  0
  -14.7440  -27.6710  -17.1140 O   0  0  0  0  0  0  0  0  0  0  0  0
  -14.2460  -28.4020  -16.7040 H   0  0  0  0  0  0  0  0  0  0  0  0
  -12.7470  -25.8860  -15.7770 C   0  0  0  0  0  0  0  0  0  0  0  0
  -11.9490  -26.9930  -16.1990 O   0  0  0  0  0  0  0  0  0  0  0  0
  -11.9960  -27.6980  -15.5140 H   0  0  0  0  0  0  0  0  0  0  0  0
  1 12  1  1  0  0  0
  2  1  1  0  0  0  0
  2  3  1  0  0  0  0
  4  2  1  0  0  0  0
  5  4  1  0  0  0  0
  5 11  1  1  0  0  0
  6 24  1  0  0  0  0
  6  5  1  6  0  0  0
  7 22  1  1  0  0  0
  7  6  1  0  0  0  0
  8 26  1  6  0  0  0
  8  7  1  0  0  0  0
  8  9  1  0  0  0  0
  9 28  1  6  0  0  0
  9 10  1  0  0  0  0
 10  5  1  0  0  0  0
 11  1  1  0  0  0  0
 12 21  2  0  0  0  0
 12 13  1  0  0  0  0
 13 14  2  0  0  0  0
 14 15  1  0  0  0  0
 15 16  2  0  0  0  0
 16 17  1  0  0  0  0
 18 17  2  0  0  0  0
 19 18  1  0  0  0  0
 20 19  2  0  0  0  0
 20 15  1  0  0  0  0
 21 20  1  0  0  0  0
 22 23  1  0  0  0  0
 25 24  1  0  0  0  0
 26 27  1  0  0  0  0
 29 28  1  0  0  0  0
 29 30  1  0  0  0  0
M  END
>  <minimizedAffinity>
-8.65262222

$$$$

 OpenBabel12271914533D

 30 33  0  0  1  0  0  0  0  0999 V2000
  -14.8670  -25.3500  -11.7160 C   0  0  1  0  0  0  0  0  0  0  0  0
  -13.4480  -25.6710  -11.8090 N   0  0  0  0  0  0  0  0  0  0  0  0
  -13.2290  -26.5050  -11.2420 H   0  0  0  0  0  0  0  0  0  0  0  0
  -13.1680  -26.0380  -13.1420 O   0  0  0  0  0  0  0  0  0  0  0  0
  -14.3840  -26.4040  -13.7940 C   0  0  2  0  0  0  0  0  0  0  0  0
  -14.3050  -27.8770  -14.2300 C   0  0  1  0  0  0  0  0  0  0  0  0
  -14.3580  -28.1410  -15.7320 C   0  0  2  0  0  0  0  0  0  0  0  0
  -13.9350  -26.9650  -16.6280 C   0  0  1  0  0  0  0  0  0  0  0  0
  -13.4690  -25.7810  -15.8050 C   0  0  2  0  0  0  0  0  0  0  0  0
  -14.5120  -25.4960  -14.8770 O   0  0  0  0  0  0  0  0  0  0  0  0
  -15.5220  -26.1320  -12.8300 C   0  0  0  0  0  0  0  0  0  0  0  0
  -15.4230  -25.7270  -10.3660 C   0  0  0  0  0  0  0  0  0  0  0  0
  -16.7970  -25.7220  -10.1200 C   0  0  0  0  0  0  0  0  0  0  0  0
  -17.3230  -26.0770   -8.8960 C   0  0  0  0  0  0  0  0  0  0  0  0
  -16.4660  -26.4400   -7.8560 C   0  0  0  0  0  0  0  0  0  0  0  0
  -16.9700  -26.7990   -6.6170 C   0  0  0  0  0  0  0  0  0  0  0  0
  -16.1100  -27.1450   -5.5840 C   0  0  0  0  0  0  0  0  0  0  0  0
  -14.7400  -27.1460   -5.7940 C   0  0  0  0  0  0  0  0  0  0  0  0
  -14.2200  -26.7990   -7.0240 C   0  0  0  0  0  0  0  0  0  0  0  0
  -15.0760  -26.4340   -8.0740 C   0  0  0  0  0  0  0  0  0  0  0  0
  -14.5710  -26.0820   -9.3160 C   0  0  0  0  0  0  0  0  0  0  0  0
  -15.6770  -28.5630  -16.0870 O   0  0  0  0  0  0  0  0  0  0  0  0
  -15.8400  -29.4390  -15.6620 H   0  0  0  0  0  0  0  0  0  0  0  0
  -13.1720  -28.5400  -13.6600 O   0  0  0  0  0  0  0  0  0  0  0  0
  -12.3740  -28.3840  -14.2060 H   0  0  0  0  0  0  0  0  0  0  0  0
  -12.9130  -27.3700  -17.5280 O   0  0  0  0  0  0  0  0  0  0  0  0
  -12.0420  -27.3680  -17.0880 H   0  0  0  0  0  0  0  0  0  0  0  0
  -13.1100  -24.5270  -16.6100 C   0  0  0  0  0  0  0  0  0  0  0  0
  -11.7590  -24.6840  -17.0480 O   0  0  0  0  0  0  0  0  0  0  0  0
  -11.2310  -25.0770  -16.3160 H   0  0  0  0  0  0  0  0  0  0  0  0
  1 12  1  1  0  0  0
  2  1  1  0  0  0  0
  2  3  1  0  0  0  0
  4  2  1  0  0  0  0
  5  4  1  0  0  0  0
  5 11  1  1  0  0  0
  6  5  1  6  0  0  0
  6 24  1  0  0  0  0
  7 22  1  6  0  0  0
  7  6  1  0  0  0  0
  8 26  1  6  0  0  0
  8  9  1  0  0  0  0
  8  7  1  0  0  0  0
  9 28  1  6  0  0  0
  9 10  1  0  0  0  0
 10  5  1  0  0  0  0
 11  1  1  0  0  0  0
 12 13  2  0  0  0  0
 12 21  1  0  0  0  0
 13 14  1  0  0  0  0
 14 15  2  0  0  0  0
 15 16  1  0  0  0  0
 16 17  2  0  0  0  0
 18 17  1  0  0  0  0
 19 18  2  0  0  0  0
 20 15  1  0  0  0  0
 20 19  1  0  0  0  0
 21 20  2  0  0  0  0
 22 23  1  0  0  0  0
 25 24  1  0  0  0  0
 26 27  1  0  0  0  0
 29 28  1  0  0  0  0
 29 30  1  0  0  0  0
M  END
>  <minimizedAffinity>
-8.55591774

$$$$

 OpenBabel12271914533D

 30 33  0  0  1  0  0  0  0  0999 V2000
  -19.1460  -27.0000  -10.9620 C   0  0  1  0  0  0  0  0  0  0  0  0
  -19.5430  -28.0010   -9.9790 N   0  0  0  0  0  0  0  0  0  0  0  0
  -19.0180  -27.8710   -9.1000 H   0  0  0  0  0  0  0  0  0  0  0  0
  -20.8950  -27.7750   -9.6470 O   0  0  0  0  0  0  0  0  0  0  0  0
  -21.2520  -26.4410  -10.0080 C   0  0  2  0  0  0  0  0  0  0  0  0
  -21.6570  -25.6630   -8.7440 C   0  0  1  0  0  0  0  0  0  0  0  0
  -23.1030  -25.1780   -8.6840 C   0  0  2  0  0  0  0  0  0  0  0  0
  -24.1000  -25.9520   -9.5630 C   0  0  1  0  0  0  0  0  0  0  0  0
  -23.4300  -27.1150  -10.2670 C   0  0  2  0  0  0  0  0  0  0  0  0
  -22.3010  -26.5800  -10.9520 O   0  0  0  0  0  0  0  0  0  0  0  0
  -20.0670  -25.8270  -10.7260 C   0  0  0  0  0  0  0  0  0  0  0  0
  -17.6970  -26.6180  -10.7940 C   0  0  0  0  0  0  0  0  0  0  0  0
  -17.0750  -25.7270  -11.6710 C   0  0  0  0  0  0  0  0  0  0  0  0
  -15.7560  -25.3550  -11.5230 C   0  0  0  0  0  0  0  0  0  0  0  0
  -15.0000  -25.8910  -10.4790 C   0  0  0  0  0  0  0  0  0  0  0  0
  -13.6730  -25.5340  -10.3110 C   0  0  0  0  0  0  0  0  0  0  0  0
  -12.9250  -26.0830   -9.2780 C   0  0  0  0  0  0  0  0  0  0  0  0
  -13.5110  -26.9800   -8.4000 C   0  0  0  0  0  0  0  0  0  0  0  0
  -14.8350  -27.3410   -8.5460 C   0  0  0  0  0  0  0  0  0  0  0  0
  -15.6000  -26.8060   -9.5940 C   0  0  0  0  0  0  0  0  0  0  0  0
  -16.9310  -27.1570   -9.7560 C   0  0  0  0  0  0  0  0  0  0  0  0
  -23.1460  -23.7890   -9.0210 O   0  0  0  0  0  0  0  0  0  0  0  0
  -22.6740  -23.2900   -8.3120 H   0  0  0  0  0  0  0  0  0  0  0  0
  -21.3370  -26.3830   -7.5500 O   0  0  0  0  0  0  0  0  0  0  0  0
  -22.0500  -27.0180   -7.3320 H   0  0  0  0  0  0  0  0  0  0  0  0
  -25.1940  -26.4140   -8.7830 O   0  0  0  0  0  0  0  0  0  0  0  0
  -24.9580  -27.2300   -8.3040 H   0  0  0  0  0  0  0  0  0  0  0  0
  -24.3260  -27.8940  -11.2360 C   0  0  0  0  0  0  0  0  0  0  0  0
  -25.3840  -27.0160  -11.6250 O   0  0  0  0  0  0  0  0  0  0  0  0
  -25.6830  -26.5090  -10.8360 H   0  0  0  0  0  0  0  0  0  0  0  0
  1 12  1  1  0  0  0
  1 11  1  0  0  0  0
  1  2  1  0  0  0  0
  2  4  1  0  0  0  0
  2  3  1  0  0  0  0
  5 11  1  6  0  0  0
  5  4  1  0  0  0  0
  6  5  1  6  0  0  0
  6  7  1  0  0  0  0
  6 24  1  0  0  0  0
  7 22  1  6  0  0  0
  8 26  1  1  0  0  0
  8  7  1  0  0  0  0
  9 28  1  6  0  0  0
  9  8  1  0  0  0  0
 10  9  1  0  0  0  0
 10  5  1  0  0  0  0
 12 21  2  0  0  0  0
 13 14  2  0  0  0  0
 13 12  1  0  0  0  0
 14 15  1  0  0  0  0
 15 16  2  0  0  0  0
 15 20  1  0  0  0  0
 16 17  1  0  0  0  0
 17 18  2  0  0  0  0
 19 18  1  0  0  0  0
 20 19  2  0  0  0  0
 21 20  1  0  0  0  0
 22 23  1  0  0  0  0
 24 25  1  0  0  0  0
 26 27  1  0  0  0  0
 29 28  1  0  0  0  0
 29 30  1  0  0  0  0
M  END
>  <minimizedAffinity>
-8.35046768

$$$$

 OpenBabel12271914533D

 30 33  0  0  1  0  0  0  0  0999 V2000
  -19.6240  -26.6810  -10.3640 C   0  0  1  0  0  0  0  0  0  0  0  0
  -19.5610  -27.1150  -11.7540 N   0  0  0  0  0  0  0  0  0  0  0  0
  -18.7220  -27.6950  -11.9130 H   0  0  0  0  0  0  0  0  0  0  0  0
  -20.6590  -27.9650  -11.9980 O   0  0  0  0  0  0  0  0  0  0  0  0
  -21.1590  -28.4550  -10.7540 C   0  0  2  0  0  0  0  0  0  0  0  0
  -21.0230  -29.9870  -10.7190 C   0  0  1  0  0  0  0  0  0  0  0  0
  -22.3240  -30.7800  -10.6380 C   0  0  2  0  0  0  0  0  0  0  0  0
  -23.5790  -30.0490  -11.1440 C   0  0  1  0  0  0  0  0  0  0  0  0
  -23.2370  -28.6830  -11.7030 C   0  0  2  0  0  0  0  0  0  0  0  0
  -22.5020  -28.0020  -10.6900 O   0  0  0  0  0  0  0  0  0  0  0  0
  -20.3890  -27.7670   -9.6460 C   0  0  0  0  0  0  0  0  0  0  0  0
  -18.2430  -26.4930   -9.7880 C   0  0  0  0  0  0  0  0  0  0  0  0
  -17.2150  -25.9210  -10.5400 C   0  0  0  0  0  0  0  0  0  0  0  0
  -15.9510  -25.7290  -10.0240 C   0  0  0  0  0  0  0  0  0  0  0  0
  -15.6700  -26.1300   -8.7170 C   0  0  0  0  0  0  0  0  0  0  0  0
  -14.4080  -25.9490   -8.1770 C   0  0  0  0  0  0  0  0  0  0  0  0
  -14.1340  -26.3630   -6.8810 C   0  0  0  0  0  0  0  0  0  0  0  0
  -15.1310  -26.9470   -6.1160 C   0  0  0  0  0  0  0  0  0  0  0  0
  -16.3970  -27.1270   -6.6330 C   0  0  0  0  0  0  0  0  0  0  0  0
  -16.6850  -26.7270   -7.9460 C   0  0  0  0  0  0  0  0  0  0  0  0
  -17.9510  -26.9000   -8.4830 C   0  0  0  0  0  0  0  0  0  0  0  0
  -22.5300  -31.2060   -9.2890 O   0  0  0  0  0  0  0  0  0  0  0  0
  -21.8170  -31.8510   -9.0620 H   0  0  0  0  0  0  0  0  0  0  0  0
  -20.2240  -30.4750  -11.8010 O   0  0  0  0  0  0  0  0  0  0  0  0
  -20.7700  -30.5890  -12.6060 H   0  0  0  0  0  0  0  0  0  0  0  0
  -24.2440  -30.8300  -12.1280 O   0  0  0  0  0  0  0  0  0  0  0  0
  -23.8150  -30.7290  -12.9980 H   0  0  0  0  0  0  0  0  0  0  0  0
  -24.4370  -27.8420  -12.1520 C   0  0  0  0  0  0  0  0  0  0  0  0
  -24.5430  -26.7460  -11.2420 O   0  0  0  0  0  0  0  0  0  0  0  0
  -24.3690  -27.0720  -10.3290 H   0  0  0  0  0  0  0  0  0  0  0  0
  1 12  1  1  0  0  0
  1 11  1  0  0  0  0
  2  1  1  0  0  0  0
  3  2  1  0  0  0  0
  4  2  1  0  0  0  0
  4  5  1  0  0  0  0
  5 10  1  0  0  0  0
  5 11  1  1  0  0  0
  6  5  1  6  0  0  0
  6  7  1  0  0  0  0
  7 22  1  1  0  0  0
  8 26  1  6  0  0  0
  8  7  1  0  0  0  0
  9 28  1  1  0  0  0
  9  8  1  0  0  0  0
  9 10  1  0  0  0  0
 12 21  2  0  0  0  0
 13 14  2  0  0  0  0
 13 12  1  0  0  0  0
 14 15  1  0  0  0  0
 15 16  2  0  0  0  0
 15 20  1  0  0  0  0
 16 17  1  0  0  0  0
 17 18  2  0  0  0  0
 19 18  1  0  0  0  0
 20 19  2  0  0  0  0
 21 20  1  0  0  0  0
 22 23  1  0  0  0  0
 24  6  1  0  0  0  0
 25 24  1  0  0  0  0
 27 26  1  0  0  0  0
 28 29  1  0  0  0  0
 29 30  1  0  0  0  0
M  END
>  <minimizedAffinity>
-8.33158398

$$$$
