
 OpenBabel12271914473D

 42 46  0  0  1  0  0  0  0  0999 V2000
  -18.0620  -27.7780   -9.7400 C   0  0  1  0  0  0  0  0  0  0  0  0
  -16.9180  -27.5020   -8.6330 C   0  0  1  0  0  0  0  0  0  0  0  0
  -15.5330  -26.9290   -9.0540 C   0  0  0  0  0  0  0  0  0  0  0  0
  -15.2470  -26.6930  -10.3920 C   0  0  0  0  0  0  0  0  0  0  0  0
  -14.0320  -26.1580  -10.7420 C   0  0  0  0  0  0  0  0  0  0  0  0
  -13.6290  -25.8860  -12.0070 O   0  0  0  0  0  0  0  0  0  0  0  0
  -12.4390  -25.0620  -11.7590 C   0  0  0  0  0  0  0  0  0  0  0  0
  -11.9790  -25.3320  -10.3790 O   0  0  0  0  0  0  0  0  0  0  0  0
  -13.1080  -25.8470   -9.8240 C   0  0  0  0  0  0  0  0  0  0  0  0
  -13.3330  -26.0540   -8.4960 C   0  0  0  0  0  0  0  0  0  0  0  0
  -14.6070  -26.6250   -8.0750 C   0  0  0  0  0  0  0  0  0  0  0  0
  -14.7070  -26.7210   -6.5830 C   0  0  0  0  0  0  0  0  0  0  0  0
  -16.0460  -26.6190   -6.0920 C   0  0  0  0  0  0  0  0  0  0  0  0
  -16.8350  -25.6170   -6.9550 N   0  0  2  0  0  0  0  0  0  0  0  0
  -16.1340  -25.0180   -7.5260 H   0  0  0  0  0  0  0  0  0  0  0  0
  -17.7890  -24.8970   -6.1770 C   0  0  0  0  0  0  0  0  0  0  0  0
  -18.8400  -25.9600   -5.8980 C   0  0  0  0  0  0  0  0  0  0  0  0
  -18.7820  -26.9560   -7.0270 C   0  0  0  0  0  0  0  0  0  0  0  0
  -17.6640  -26.4080   -7.9610 C   0  0  2  0  0  0  0  0  0  0  0  0
  -18.2490  -25.5840   -9.0090 C   0  0  0  0  0  0  0  0  0  0  0  0
  -18.4330  -26.3390  -10.0780 C   0  0  2  0  0  0  0  0  0  0  0  0
  -18.9190  -26.0370  -11.3040 O   0  0  0  0  0  0  0  0  0  0  0  0
  -20.3450  -25.6160  -11.3540 C   0  0  0  0  0  0  0  0  0  0  0  0
  -17.6520  -28.6770  -10.8610 O   0  0  0  0  0  0  0  0  0  0  0  0
  -18.7590  -29.3130  -11.2950 C   0  0  0  0  0  0  0  0  0  0  0  0
  -19.6570  -29.8290  -10.6970 O   0  0  0  0  0  0  0  0  0  0  0  0
  -18.7620  -29.4460  -12.8720 C   0  0  2  0  0  0  0  0  0  0  0  0
  -19.0260  -28.0440  -13.3770 O   0  0  0  0  0  0  0  0  0  0  0  0
  -19.9480  -27.8590  -13.2030 H   0  0  0  0  0  0  0  0  0  0  0  0
  -19.8750  -30.2220  -13.4650 C   0  0  0  0  0  0  0  0  0  0  0  0
  -20.9600  -29.2760  -14.0770 C   0  0  0  0  0  0  0  0  0  0  0  0
  -20.9350  -29.0880  -15.3260 O   0  0  0  0  0  0  0  0  0  0  0  0
  -21.7670  -28.7670  -13.1800 O   0  0  0  0  0  0  0  0  0  0  0  0
  -22.7350  -29.7320  -12.5090 C   0  0  0  0  0  0  0  0  0  0  0  0
  -17.4580  -29.9440  -13.4860 C   0  0  0  0  0  0  0  0  0  0  0  0
  -16.6900  -28.9970  -14.4100 C   0  0  0  0  0  0  0  0  0  0  0  0
  -15.5260  -28.2770  -13.7140 C   0  0  0  0  0  0  0  0  0  0  0  0
  -14.4070  -27.9700  -14.6940 C   0  0  0  0  0  0  0  0  0  0  0  0
  -14.3500  -29.0790  -15.7260 C   0  0  0  0  0  0  0  0  0  0  0  0
  -14.5940  -26.6250  -15.4150 C   0  0  0  0  0  0  0  0  0  0  0  0
  -13.1160  -27.9430  -13.9980 O   0  0  0  0  0  0  0  0  0  0  0  0
  -12.8660  -28.8230  -13.8710 H   0  0  0  0  0  0  0  0  0  0  0  0
  1 24  1  6  0  0  0
  1  2  1  0  0  0  0
  2 19  1  1  0  0  0
  3  2  1  0  0  0  0
  3 11  2  0  0  0  0
  4  3  1  0  0  0  0
  5  4  2  0  0  0  0
  5  9  1  0  0  0  0
  6  7  1  0  0  0  0
  6  5  1  0  0  0  0
  7  8  1  0  0  0  0
  8  9  1  0  0  0  0
  9 10  2  0  0  0  0
 10 11  1  0  0  0  0
 11 12  1  0  0  0  0
 12 13  1  0  0  0  0
 14 19  1  6  0  0  0
 14 16  1  0  0  0  0
 14 13  1  0  0  0  0
 15 14  1  0  0  0  0
 16 17  1  0  0  0  0
 18 17  1  0  0  0  0
 19 20  1  6  0  0  0
 19 18  1  0  0  0  0
 21 22  1  1  0  0  0
 21  1  1  0  0  0  0
 21 20  1  0  0  0  0
 23 22  1  0  0  0  0
 25 24  1  0  0  0  0
 25 26  2  0  0  0  0
 27 35  1  6  0  0  0
 27 25  1  0  0  0  0
 28 29  1  0  0  0  0
 28 27  1  0  0  0  0
 30 27  1  0  0  0  0
 31 30  1  0  0  0  0
 31 33  1  0  0  0  0
 32 31  2  0  0  0  0
 33 34  1  0  0  0  0
 36 37  1  0  0  0  0
 36 35  1  0  0  0  0
 38 41  1  0  0  0  0
 38 37  1  0  0  0  0
 39 38  1  0  0  0  0
 40 38  1  0  0  0  0
 41 42  1  0  0  0  0
M  END
>  <minimizedAffinity>
-7.98500299

$$$$

 OpenBabel12271914473D

 42 46  0  0  1  0  0  0  0  0999 V2000
  -24.8440  -25.7830   -6.7250 C   0  0  1  0  0  0  0  0  0  0  0  0
  -23.9330  -25.8040   -8.0590 C   0  0  1  0  0  0  0  0  0  0  0  0
  -22.3810  -25.8750   -7.9540 C   0  0  0  0  0  0  0  0  0  0  0  0
  -21.7580  -25.8740   -6.7130 C   0  0  0  0  0  0  0  0  0  0  0  0
  -20.3910  -25.9690   -6.6390 C   0  0  0  0  0  0  0  0  0  0  0  0
  -19.6650  -25.9720   -5.4940 O   0  0  0  0  0  0  0  0  0  0  0  0
  -18.3530  -26.4100   -5.9870 C   0  0  0  0  0  0  0  0  0  0  0  0
  -18.3060  -26.1530   -7.4450 O   0  0  0  0  0  0  0  0  0  0  0  0
  -19.6310  -26.0720   -7.7370 C   0  0  0  0  0  0  0  0  0  0  0  0
  -20.1850  -26.0810   -8.9820 C   0  0  0  0  0  0  0  0  0  0  0  0
  -21.6340  -25.9770   -9.1120 C   0  0  0  0  0  0  0  0  0  0  0  0
  -22.0710  -26.0700  -10.5430 C   0  0  0  0  0  0  0  0  0  0  0  0
  -23.3770  -26.6290  -10.7060 C   0  0  0  0  0  0  0  0  0  0  0  0
  -23.5980  -27.7330   -9.6550 N   0  0  2  0  0  0  0  0  0  0  0  0
  -22.6380  -28.0250   -9.2440 H   0  0  0  0  0  0  0  0  0  0  0  0
  -24.4090  -28.7870  -10.1680 C   0  0  0  0  0  0  0  0  0  0  0  0
  -25.7820  -28.1350  -10.2260 C   0  0  0  0  0  0  0  0  0  0  0  0
  -25.8120  -27.0600   -9.1710 C   0  0  0  0  0  0  0  0  0  0  0  0
  -24.4080  -27.1370   -8.5070 C   0  0  2  0  0  0  0  0  0  0  0  0
  -24.4600  -27.9900   -7.3280 C   0  0  0  0  0  0  0  0  0  0  0  0
  -24.6490  -27.2230   -6.2690 C   0  0  2  0  0  0  0  0  0  0  0  0
  -24.7410  -27.5340   -4.9550 O   0  0  0  0  0  0  0  0  0  0  0  0
  -25.0720  -28.9510   -4.6420 C   0  0  0  0  0  0  0  0  0  0  0  0
  -24.5210  -24.6920   -5.7570 O   0  0  0  0  0  0  0  0  0  0  0  0
  -25.6880  -24.2220   -5.2720 C   0  0  0  0  0  0  0  0  0  0  0  0
  -26.6680  -23.8200   -5.8290 O   0  0  0  0  0  0  0  0  0  0  0  0
  -25.6550  -24.1260   -3.6930 C   0  0  2  0  0  0  0  0  0  0  0  0
  -24.8180  -25.3070   -3.2520 O   0  0  0  0  0  0  0  0  0  0  0  0
  -25.3550  -26.0880   -3.3810 H   0  0  0  0  0  0  0  0  0  0  0  0
  -26.9400  -24.3570   -2.9930 C   0  0  0  0  0  0  0  0  0  0  0  0
  -26.7850  -25.4310   -1.8660 C   0  0  0  0  0  0  0  0  0  0  0  0
  -26.9070  -26.6450   -2.1940 O   0  0  0  0  0  0  0  0  0  0  0  0
  -26.5630  -24.9110   -0.6840 O   0  0  0  0  0  0  0  0  0  0  0  0
  -25.3120  -25.3850    0.0440 C   0  0  0  0  0  0  0  0  0  0  0  0
  -25.0320  -22.8530   -3.1300 C   0  0  0  0  0  0  0  0  0  0  0  0
  -25.9530  -21.8430   -2.4450 C   0  0  0  0  0  0  0  0  0  0  0  0
  -25.6030  -21.6000   -0.9700 C   0  0  0  0  0  0  0  0  0  0  0  0
  -26.8560  -21.4130   -0.1320 C   0  0  0  0  0  0  0  0  0  0  0  0
  -26.7910  -20.0520    0.5350 C   0  0  0  0  0  0  0  0  0  0  0  0
  -28.1490  -21.5040   -0.9580 C   0  0  0  0  0  0  0  0  0  0  0  0
  -26.9140  -22.4250    0.9270 O   0  0  0  0  0  0  0  0  0  0  0  0
  -26.3360  -22.1460    1.5920 H   0  0  0  0  0  0  0  0  0  0  0  0
  1 21  1  0  0  0  0
  1 24  1  1  0  0  0
  2 19  1  6  0  0  0
  2  3  1  0  0  0  0
  2  1  1  0  0  0  0
  3  4  2  0  0  0  0
  4  5  1  0  0  0  0
  5  6  1  0  0  0  0
  7  6  1  0  0  0  0
  8  7  1  0  0  0  0
  9  8  1  0  0  0  0
  9  5  2  0  0  0  0
 10  9  1  0  0  0  0
 11 10  2  0  0  0  0
 11  3  1  0  0  0  0
 12 11  1  0  0  0  0
 13 12  1  0  0  0  0
 13 14  1  0  0  0  0
 14 15  1  0  0  0  0
 14 19  1  1  0  0  0
 16 14  1  0  0  0  0
 17 16  1  0  0  0  0
 17 18  1  0  0  0  0
 19 18  1  6  0  0  0
 19 20  1  0  0  0  0
 20 21  1  0  0  0  0
 21 22  1  6  0  0  0
 22 23  1  0  0  0  0
 24 25  1  0  0  0  0
 25 27  1  0  0  0  0
 26 25  2  0  0  0  0
 27 28  1  0  0  0  0
 27 35  1  1  0  0  0
 27 30  1  0  0  0  0
 29 28  1  0  0  0  0
 30 31  1  0  0  0  0
 31 33  1  0  0  0  0
 32 31  2  0  0  0  0
 33 34  1  0  0  0  0
 35 36  1  0  0  0  0
 36 37  1  0  0  0  0
 37 38  1  0  0  0  0
 38 39  1  0  0  0  0
 38 41  1  0  0  0  0
 40 38  1  0  0  0  0
 41 42  1  0  0  0  0
M  END
>  <minimizedAffinity>
-7.91123819

$$$$

 OpenBabel12271914473D

 42 46  0  0  1  0  0  0  0  0999 V2000
  -19.2510  -26.6740  -11.0090 C   0  0  1  0  0  0  0  0  0  0  0  0
  -17.7580  -26.0580  -11.0440 C   0  0  1  0  0  0  0  0  0  0  0  0
  -16.8420  -26.1340   -9.7880 C   0  0  0  0  0  0  0  0  0  0  0  0
  -17.3130  -26.6890   -8.6060 C   0  0  0  0  0  0  0  0  0  0  0  0
  -16.4820  -26.7760   -7.5180 C   0  0  0  0  0  0  0  0  0  0  0  0
  -16.8200  -27.2890   -6.3090 O   0  0  0  0  0  0  0  0  0  0  0  0
  -15.5030  -27.4200   -5.6730 C   0  0  0  0  0  0  0  0  0  0  0  0
  -14.5650  -26.5200   -6.3810 O   0  0  0  0  0  0  0  0  0  0  0  0
  -15.2150  -26.3440   -7.5620 C   0  0  0  0  0  0  0  0  0  0  0  0
  -14.6950  -25.7920   -8.6950 C   0  0  0  0  0  0  0  0  0  0  0  0
  -15.5420  -25.6740   -9.8760 C   0  0  0  0  0  0  0  0  0  0  0  0
  -14.7910  -25.1080  -11.0430 C   0  0  0  0  0  0  0  0  0  0  0  0
  -15.2780  -25.5590  -12.3090 C   0  0  0  0  0  0  0  0  0  0  0  0
  -15.7280  -27.0270  -12.1930 N   0  0  2  0  0  0  0  0  0  0  0  0
  -15.3070  -27.4530  -11.2890 H   0  0  0  0  0  0  0  0  0  0  0  0
  -15.4810  -27.7450  -13.3990 C   0  0  0  0  0  0  0  0  0  0  0  0
  -16.5360  -27.1710  -14.3340 C   0  0  0  0  0  0  0  0  0  0  0  0
  -17.6850  -26.7040  -13.4790 C   0  0  0  0  0  0  0  0  0  0  0  0
  -17.2440  -27.0460  -12.0270 C   0  0  2  0  0  0  0  0  0  0  0  0
  -17.7710  -28.3470  -11.6380 C   0  0  0  0  0  0  0  0  0  0  0  0
  -18.9050  -28.1580  -10.9890 C   0  0  2  0  0  0  0  0  0  0  0  0
  -19.7530  -29.0410  -10.4110 O   0  0  0  0  0  0  0  0  0  0  0  0
  -20.1920  -30.1780  -11.2650 C   0  0  0  0  0  0  0  0  0  0  0  0
  -20.1270  -26.1440   -9.9210 O   0  0  0  0  0  0  0  0  0  0  0  0
  -21.1860  -25.5490  -10.5070 C   0  0  0  0  0  0  0  0  0  0  0  0
  -21.2590  -24.8450  -11.4710 O   0  0  0  0  0  0  0  0  0  0  0  0
  -22.5100  -25.7890   -9.6750 C   0  0  2  0  0  0  0  0  0  0  0  0
  -23.0230  -24.4010   -9.3570 O   0  0  0  0  0  0  0  0  0  0  0  0
  -22.4430  -24.0410   -8.6870 H   0  0  0  0  0  0  0  0  0  0  0  0
  -22.3440  -26.3910   -8.3320 C   0  0  0  0  0  0  0  0  0  0  0  0
  -22.3090  -25.2920   -7.2200 C   0  0  0  0  0  0  0  0  0  0  0  0
  -23.4060  -24.9620   -6.6890 O   0  0  0  0  0  0  0  0  0  0  0  0
  -21.1060  -24.8240   -6.9940 O   0  0  0  0  0  0  0  0  0  0  0  0
  -20.0850  -25.8100   -6.4400 C   0  0  0  0  0  0  0  0  0  0  0  0
  -23.6080  -26.5560  -10.4050 C   0  0  0  0  0  0  0  0  0  0  0  0
  -23.1970  -27.7360  -11.2860 C   0  0  0  0  0  0  0  0  0  0  0  0
  -23.9420  -27.7840  -12.6280 C   0  0  0  0  0  0  0  0  0  0  0  0
  -23.0670  -27.2740  -13.7600 C   0  0  0  0  0  0  0  0  0  0  0  0
  -21.6650  -27.8200  -13.5690 C   0  0  0  0  0  0  0  0  0  0  0  0
  -23.5800  -27.6880  -15.1480 C   0  0  0  0  0  0  0  0  0  0  0  0
  -22.9840  -25.8110  -13.7180 O   0  0  0  0  0  0  0  0  0  0  0  0
  -22.3790  -25.5990  -13.0520 H   0  0  0  0  0  0  0  0  0  0  0  0
  1 21  1  0  0  0  0
  1 24  1  1  0  0  0
  2 19  1  6  0  0  0
  2  1  1  0  0  0  0
  2  3  1  0  0  0  0
  3  4  1  0  0  0  0
  4  5  2  0  0  0  0
  5  6  1  0  0  0  0
  6  7  1  0  0  0  0
  8  7  1  0  0  0  0
  9  5  1  0  0  0  0
  9  8  1  0  0  0  0
 10  9  2  0  0  0  0
 11  3  2  0  0  0  0
 11 10  1  0  0  0  0
 12 11  1  0  0  0  0
 13 14  1  0  0  0  0
 13 12  1  0  0  0  0
 14 19  1  1  0  0  0
 14 15  1  0  0  0  0
 16 14  1  0  0  0  0
 17 18  1  0  0  0  0
 17 16  1  0  0  0  0
 19 18  1  6  0  0  0
 19 20  1  0  0  0  0
 20 21  1  0  0  0  0
 21 22  1  6  0  0  0
 23 22  1  0  0  0  0
 25 24  1  0  0  0  0
 25 27  1  0  0  0  0
 26 25  2  0  0  0  0
 27 35  1  6  0  0  0
 27 28  1  0  0  0  0
 27 30  1  0  0  0  0
 28 29  1  0  0  0  0
 30 31  1  0  0  0  0
 31 33  1  0  0  0  0
 31 32  2  0  0  0  0
 33 34  1  0  0  0  0
 36 35  1  0  0  0  0
 37 36  1  0  0  0  0
 38 41  1  0  0  0  0
 38 39  1  0  0  0  0
 38 37  1  0  0  0  0
 40 38  1  0  0  0  0
 41 42  1  0  0  0  0
M  END
>  <minimizedAffinity>
-7.79659891

$$$$

 OpenBabel12271914473D

 42 46  0  0  1  0  0  0  0  0999 V2000
  -18.3280  -26.9660  -12.2890 C   0  0  1  0  0  0  0  0  0  0  0  0
  -17.0170  -26.5350  -13.1280 C   0  0  1  0  0  0  0  0  0  0  0  0
  -15.6860  -26.1990  -12.3950 C   0  0  0  0  0  0  0  0  0  0  0  0
  -15.6210  -26.2200  -11.0080 C   0  0  0  0  0  0  0  0  0  0  0  0
  -14.4310  -25.9520  -10.3790 C   0  0  0  0  0  0  0  0  0  0  0  0
  -14.2370  -25.9350   -9.0370 O   0  0  0  0  0  0  0  0  0  0  0  0
  -12.7710  -25.9200   -8.9580 C   0  0  0  0  0  0  0  0  0  0  0  0
  -12.2510  -25.4390  -10.2580 O   0  0  0  0  0  0  0  0  0  0  0  0
  -13.3160  -25.6750  -11.0680 C   0  0  0  0  0  0  0  0  0  0  0  0
  -13.3170  -25.6420  -12.4310 C   0  0  0  0  0  0  0  0  0  0  0  0
  -14.5590  -25.9150  -13.1430 C   0  0  0  0  0  0  0  0  0  0  0  0
  -14.3620  -25.9020  -14.6290 C   0  0  0  0  0  0  0  0  0  0  0  0
  -15.2620  -26.7610  -15.3330 C   0  0  0  0  0  0  0  0  0  0  0  0
  -15.5160  -28.0320  -14.5010 N   0  0  2  0  0  0  0  0  0  0  0  0
  -14.7480  -28.1120  -13.7400 H   0  0  0  0  0  0  0  0  0  0  0  0
  -15.6970  -29.1740  -15.3340 C   0  0  0  0  0  0  0  0  0  0  0  0
  -17.0720  -28.9160  -15.9340 C   0  0  0  0  0  0  0  0  0  0  0  0
  -17.8360  -28.0650  -14.9540 C   0  0  0  0  0  0  0  0  0  0  0  0
  -16.8460  -27.8610  -13.7720 C   0  0  2  0  0  0  0  0  0  0  0  0
  -17.0790  -28.8670  -12.7460 C   0  0  0  0  0  0  0  0  0  0  0  0
  -17.8880  -28.3530  -11.8360 C   0  0  2  0  0  0  0  0  0  0  0  0
  -18.3760  -28.8760  -10.6870 O   0  0  0  0  0  0  0  0  0  0  0  0
  -19.4150  -29.9300  -10.8410 C   0  0  0  0  0  0  0  0  0  0  0  0
  -18.7570  -25.9910  -11.2410 O   0  0  0  0  0  0  0  0  0  0  0  0
  -20.0350  -26.2790  -10.9180 C   0  0  0  0  0  0  0  0  0  0  0  0
  -20.9950  -26.4760  -11.6040 O   0  0  0  0  0  0  0  0  0  0  0  0
  -20.2510  -26.2440   -9.3520 C   0  0  2  0  0  0  0  0  0  0  0  0
  -20.8540  -27.5910   -9.0150 O   0  0  0  0  0  0  0  0  0  0  0  0
  -21.7570  -27.5740   -9.3300 H   0  0  0  0  0  0  0  0  0  0  0  0
  -21.2710  -25.2950   -8.8490 C   0  0  0  0  0  0  0  0  0  0  0  0
  -22.1830  -25.9650   -7.7690 C   0  0  0  0  0  0  0  0  0  0  0  0
  -21.8100  -25.8970   -6.5640 O   0  0  0  0  0  0  0  0  0  0  0  0
  -23.2400  -26.5490   -8.2760 O   0  0  0  0  0  0  0  0  0  0  0  0
  -23.8650  -25.8860   -9.4960 C   0  0  0  0  0  0  0  0  0  0  0  0
  -18.9840  -26.0610   -8.5230 C   0  0  0  0  0  0  0  0  0  0  0  0
  -18.5490  -27.2090   -7.6100 C   0  0  0  0  0  0  0  0  0  0  0  0
  -17.0310  -27.4410   -7.6040 C   0  0  0  0  0  0  0  0  0  0  0  0
  -16.3690  -26.7070   -6.4510 C   0  0  0  0  0  0  0  0  0  0  0  0
  -17.3710  -26.5800   -5.3200 C   0  0  0  0  0  0  0  0  0  0  0  0
  -15.1120  -27.4200   -5.9280 C   0  0  0  0  0  0  0  0  0  0  0  0
  -15.9900  -25.3510   -6.8640 O   0  0  0  0  0  0  0  0  0  0  0  0
  -16.7620  -24.8430   -6.8440 H   0  0  0  0  0  0  0  0  0  0  0  0
  1 21  1  0  0  0  0
  1 24  1  1  0  0  0
  2 19  1  6  0  0  0
  2  3  1  0  0  0  0
  2  1  1  0  0  0  0
  3  4  2  0  0  0  0
  4  5  1  0  0  0  0
  5  6  1  0  0  0  0
  6  7  1  0  0  0  0
  8  7  1  0  0  0  0
  9  5  2  0  0  0  0
  9  8  1  0  0  0  0
 10  9  1  0  0  0  0
 11 10  2  0  0  0  0
 11  3  1  0  0  0  0
 12 11  1  0  0  0  0
 13 12  1  0  0  0  0
 13 14  1  0  0  0  0
 14 19  1  1  0  0  0
 14 15  1  0  0  0  0
 16 14  1  0  0  0  0
 17 16  1  0  0  0  0
 17 18  1  0  0  0  0
 19 18  1  6  0  0  0
 19 20  1  0  0  0  0
 20 21  1  0  0  0  0
 21 22  1  6  0  0  0
 23 22  1  0  0  0  0
 24 25  1  0  0  0  0
 25 27  1  0  0  0  0
 26 25  2  0  0  0  0
 27 28  1  0  0  0  0
 27 30  1  1  0  0  0
 27 35  1  0  0  0  0
 29 28  1  0  0  0  0
 30 31  1  0  0  0  0
 31 32  2  0  0  0  0
 33 31  1  0  0  0  0
 34 33  1  0  0  0  0
 35 36  1  0  0  0  0
 36 37  1  0  0  0  0
 37 38  1  0  0  0  0
 38 40  1  0  0  0  0
 38 39  1  0  0  0  0
 41 42  1  0  0  0  0
 41 38  1  0  0  0  0
M  END
>  <minimizedAffinity>
-7.76871157

$$$$

 OpenBabel12271914473D

 42 46  0  0  1  0  0  0  0  0999 V2000
  -18.0020  -27.8480   -9.9190 C   0  0  1  0  0  0  0  0  0  0  0  0
  -16.8700  -27.5570   -8.8050 C   0  0  1  0  0  0  0  0  0  0  0  0
  -15.4920  -26.9600   -9.2160 C   0  0  0  0  0  0  0  0  0  0  0  0
  -15.2020  -26.7140  -10.5520 C   0  0  0  0  0  0  0  0  0  0  0  0
  -13.9950  -26.1590  -10.8930 C   0  0  0  0  0  0  0  0  0  0  0  0
  -13.5890  -25.8760  -12.1560 O   0  0  0  0  0  0  0  0  0  0  0  0
  -12.4140  -25.0330  -11.8980 C   0  0  0  0  0  0  0  0  0  0  0  0
  -11.9570  -25.3000  -10.5160 O   0  0  0  0  0  0  0  0  0  0  0  0
  -13.0810  -25.8350   -9.9690 C   0  0  0  0  0  0  0  0  0  0  0  0
  -13.3100  -26.0490   -8.6430 C   0  0  0  0  0  0  0  0  0  0  0  0
  -14.5760  -26.6430   -8.2310 C   0  0  0  0  0  0  0  0  0  0  0  0
  -14.6840  -26.7450   -6.7390 C   0  0  0  0  0  0  0  0  0  0  0  0
  -16.0270  -26.6670   -6.2560 C   0  0  0  0  0  0  0  0  0  0  0  0
  -16.8270  -25.6750   -7.1210 N   0  0  2  0  0  0  0  0  0  0  0  0
  -16.1330  -25.0630   -7.6860 H   0  0  0  0  0  0  0  0  0  0  0  0
  -17.7970  -24.9740   -6.3460 C   0  0  0  0  0  0  0  0  0  0  0  0
  -18.8330  -26.0550   -6.0770 C   0  0  0  0  0  0  0  0  0  0  0  0
  -18.7510  -27.0460   -7.2080 C   0  0  0  0  0  0  0  0  0  0  0  0
  -17.6380  -26.4780   -8.1340 C   0  0  2  0  0  0  0  0  0  0  0  0
  -18.2300  -25.6600   -9.1830 C   0  0  0  0  0  0  0  0  0  0  0  0
  -18.3950  -26.4150  -10.2550 C   0  0  2  0  0  0  0  0  0  0  0  0
  -18.8790  -26.1170  -11.4830 O   0  0  0  0  0  0  0  0  0  0  0  0
  -18.0520  -25.1880  -12.3010 C   0  0  0  0  0  0  0  0  0  0  0  0
  -17.5710  -28.7370  -11.0400 O   0  0  0  0  0  0  0  0  0  0  0  0
  -18.6810  -29.2970  -11.5630 C   0  0  0  0  0  0  0  0  0  0  0  0
  -19.6940  -29.6700  -11.0460 O   0  0  0  0  0  0  0  0  0  0  0  0
  -18.5130  -29.5630  -13.1130 C   0  0  2  0  0  0  0  0  0  0  0  0
  -17.4010  -30.5850  -13.2110 O   0  0  0  0  0  0  0  0  0  0  0  0
  -16.5860  -30.1250  -13.0100 H   0  0  0  0  0  0  0  0  0  0  0  0
  -17.9920  -28.4360  -13.9210 C   0  0  0  0  0  0  0  0  0  0  0  0
  -16.6000  -28.7820  -14.5440 C   0  0  0  0  0  0  0  0  0  0  0  0
  -16.5880  -29.3550  -15.6700 O   0  0  0  0  0  0  0  0  0  0  0  0
  -15.5920  -28.4430  -13.7790 O   0  0  0  0  0  0  0  0  0  0  0  0
  -14.2180  -28.4150  -14.4350 C   0  0  0  0  0  0  0  0  0  0  0  0
  -19.7450  -30.1200  -13.8170 C   0  0  0  0  0  0  0  0  0  0  0  0
  -19.5590  -31.3100  -14.7610 C   0  0  0  0  0  0  0  0  0  0  0  0
  -20.4040  -31.2120  -16.0390 C   0  0  0  0  0  0  0  0  0  0  0  0
  -19.5300  -30.9690  -17.2570 C   0  0  0  0  0  0  0  0  0  0  0  0
  -20.1080  -31.7390  -18.4280 C   0  0  0  0  0  0  0  0  0  0  0  0
  -19.4300  -29.4830  -17.6360 C   0  0  0  0  0  0  0  0  0  0  0  0
  -18.1740  -31.4740  -17.0170 O   0  0  0  0  0  0  0  0  0  0  0  0
  -18.2090  -32.3910  -17.1320 H   0  0  0  0  0  0  0  0  0  0  0  0
  1 24  1  6  0  0  0
  1  2  1  0  0  0  0
  2 19  1  1  0  0  0
  3  2  1  0  0  0  0
  3 11  2  0  0  0  0
  4  3  1  0  0  0  0
  5  4  2  0  0  0  0
  5  9  1  0  0  0  0
  6  7  1  0  0  0  0
  6  5  1  0  0  0  0
  7  8  1  0  0  0  0
  8  9  1  0  0  0  0
  9 10  2  0  0  0  0
 10 11  1  0  0  0  0
 11 12  1  0  0  0  0
 12 13  1  0  0  0  0
 14 19  1  6  0  0  0
 14 16  1  0  0  0  0
 14 13  1  0  0  0  0
 15 14  1  0  0  0  0
 16 17  1  0  0  0  0
 18 17  1  0  0  0  0
 19 20  1  6  0  0  0
 19 18  1  0  0  0  0
 21 22  1  1  0  0  0
 21  1  1  0  0  0  0
 21 20  1  0  0  0  0
 23 22  1  0  0  0  0
 25 26  2  0  0  0  0
 25 24  1  0  0  0  0
 27 30  1  6  0  0  0
 27 25  1  0  0  0  0
 28 27  1  0  0  0  0
 28 29  1  0  0  0  0
 31 30  1  0  0  0  0
 31 33  1  0  0  0  0
 32 31  2  0  0  0  0
 34 33  1  0  0  0  0
 35 27  1  0  0  0  0
 36 35  1  0  0  0  0
 37 36  1  0  0  0  0
 38 41  1  0  0  0  0
 38 37  1  0  0  0  0
 39 38  1  0  0  0  0
 40 38  1  0  0  0  0
 42 41  1  0  0  0  0
M  END
>  <minimizedAffinity>
-7.69915342

$$$$

 OpenBabel12271914473D

 42 46  0  0  1  0  0  0  0  0999 V2000
  -18.0760  -27.7270   -9.8560 C   0  0  1  0  0  0  0  0  0  0  0  0
  -16.9390  -27.4870   -8.7340 C   0  0  1  0  0  0  0  0  0  0  0  0
  -15.5440  -26.9210   -9.1320 C   0  0  0  0  0  0  0  0  0  0  0  0
  -15.2440  -26.6590  -10.4620 C   0  0  0  0  0  0  0  0  0  0  0  0
  -14.0210  -26.1320  -10.7910 C   0  0  0  0  0  0  0  0  0  0  0  0
  -13.6040  -25.8380  -12.0470 O   0  0  0  0  0  0  0  0  0  0  0  0
  -12.4080  -25.0320  -11.7730 C   0  0  0  0  0  0  0  0  0  0  0  0
  -11.9610  -25.3360  -10.3940 O   0  0  0  0  0  0  0  0  0  0  0  0
  -13.1010  -25.8500   -9.8600 C   0  0  0  0  0  0  0  0  0  0  0  0
  -13.3390  -26.0820   -8.5380 C   0  0  0  0  0  0  0  0  0  0  0  0
  -14.6220  -26.6470   -8.1390 C   0  0  0  0  0  0  0  0  0  0  0  0
  -14.7360  -26.7730   -6.6500 C   0  0  0  0  0  0  0  0  0  0  0  0
  -16.0780  -26.6670   -6.1680 C   0  0  0  0  0  0  0  0  0  0  0  0
  -16.8480  -25.6380   -7.0160 N   0  0  2  0  0  0  0  0  0  0  0  0
  -16.1370  -25.0350   -7.5690 H   0  0  0  0  0  0  0  0  0  0  0  0
  -17.8010  -24.9240   -6.2310 C   0  0  0  0  0  0  0  0  0  0  0  0
  -18.8660  -25.9810   -5.9830 C   0  0  0  0  0  0  0  0  0  0  0  0
  -18.8090  -26.9530   -7.1320 C   0  0  0  0  0  0  0  0  0  0  0  0
  -17.6780  -26.3990   -8.0450 C   0  0  2  0  0  0  0  0  0  0  0  0
  -18.2450  -25.5470   -9.0800 C   0  0  0  0  0  0  0  0  0  0  0  0
  -18.4280  -26.2770  -10.1660 C   0  0  2  0  0  0  0  0  0  0  0  0
  -18.9010  -25.9440  -11.3900 O   0  0  0  0  0  0  0  0  0  0  0  0
  -18.0080  -25.0940  -12.2230 C   0  0  0  0  0  0  0  0  0  0  0  0
  -17.6670  -28.6070  -10.9920 O   0  0  0  0  0  0  0  0  0  0  0  0
  -18.7360  -29.3580  -11.3280 C   0  0  0  0  0  0  0  0  0  0  0  0
  -19.4380  -30.0680  -10.6690 O   0  0  0  0  0  0  0  0  0  0  0  0
  -18.9940  -29.3190  -12.8880 C   0  0  2  0  0  0  0  0  0  0  0  0
  -18.4680  -30.6430  -13.3990 O   0  0  0  0  0  0  0  0  0  0  0  0
  -17.5140  -30.5900  -13.3660 H   0  0  0  0  0  0  0  0  0  0  0  0
  -18.2050  -28.3340  -13.6620 C   0  0  0  0  0  0  0  0  0  0  0  0
  -17.1450  -29.0430  -14.5670 C   0  0  0  0  0  0  0  0  0  0  0  0
  -15.9730  -29.1620  -14.1120 O   0  0  0  0  0  0  0  0  0  0  0  0
  -17.6220  -29.4130  -15.7300 O   0  0  0  0  0  0  0  0  0  0  0  0
  -18.3890  -28.3580  -16.5170 C   0  0  0  0  0  0  0  0  0  0  0  0
  -20.4560  -29.1870  -13.3040 C   0  0  0  0  0  0  0  0  0  0  0  0
  -21.2680  -28.0320  -12.7160 C   0  0  0  0  0  0  0  0  0  0  0  0
  -22.4630  -28.4960  -11.8690 C   0  0  0  0  0  0  0  0  0  0  0  0
  -22.5700  -27.6920  -10.5850 C   0  0  0  0  0  0  0  0  0  0  0  0
  -22.3740  -26.2250  -10.9160 C   0  0  0  0  0  0  0  0  0  0  0  0
  -23.9220  -27.8690   -9.8760 C   0  0  0  0  0  0  0  0  0  0  0  0
  -21.5080  -28.0830   -9.6520 O   0  0  0  0  0  0  0  0  0  0  0  0
  -20.7350  -27.6640   -9.9400 H   0  0  0  0  0  0  0  0  0  0  0  0
  1 24  1  6  0  0  0
  1  2  1  0  0  0  0
  2 19  1  1  0  0  0
  3  2  1  0  0  0  0
  3 11  2  0  0  0  0
  4  3  1  0  0  0  0
  5  4  2  0  0  0  0
  5  9  1  0  0  0  0
  6  7  1  0  0  0  0
  6  5  1  0  0  0  0
  7  8  1  0  0  0  0
  8  9  1  0  0  0  0
  9 10  2  0  0  0  0
 10 11  1  0  0  0  0
 11 12  1  0  0  0  0
 12 13  1  0  0  0  0
 14 19  1  6  0  0  0
 14 16  1  0  0  0  0
 14 13  1  0  0  0  0
 15 14  1  0  0  0  0
 16 17  1  0  0  0  0
 18 17  1  0  0  0  0
 19 20  1  6  0  0  0
 19 18  1  0  0  0  0
 21 22  1  1  0  0  0
 21  1  1  0  0  0  0
 21 20  1  0  0  0  0
 23 22  1  0  0  0  0
 25 24  1  0  0  0  0
 25 26  2  0  0  0  0
 27 30  1  6  0  0  0
 27 25  1  0  0  0  0
 28 29  1  0  0  0  0
 28 27  1  0  0  0  0
 31 32  2  0  0  0  0
 31 30  1  0  0  0  0
 33 31  1  0  0  0  0
 34 33  1  0  0  0  0
 35 27  1  0  0  0  0
 35 36  1  0  0  0  0
 36 37  1  0  0  0  0
 37 38  1  0  0  0  0
 38 40  1  0  0  0  0
 38 41  1  0  0  0  0
 39 38  1  0  0  0  0
 42 41  1  0  0  0  0
M  END
>  <minimizedAffinity>
-7.47844458

$$$$

 OpenBabel12271914473D

 42 46  0  0  1  0  0  0  0  0999 V2000
  -18.6380  -26.5970  -11.1650 C   0  0  1  0  0  0  0  0  0  0  0  0
  -17.1560  -25.9650  -11.0530 C   0  0  1  0  0  0  0  0  0  0  0  0
  -16.3290  -26.1190   -9.7430 C   0  0  0  0  0  0  0  0  0  0  0  0
  -16.8730  -26.7600   -8.6380 C   0  0  0  0  0  0  0  0  0  0  0  0
  -16.1190  -26.9140   -7.5020 C   0  0  0  0  0  0  0  0  0  0  0  0
  -16.5330  -27.5130   -6.3590 O   0  0  0  0  0  0  0  0  0  0  0  0
  -15.2620  -27.6750   -5.6420 C   0  0  0  0  0  0  0  0  0  0  0  0
  -14.2900  -26.7190   -6.2180 O   0  0  0  0  0  0  0  0  0  0  0  0
  -14.8580  -26.4680   -7.4270 C   0  0  0  0  0  0  0  0  0  0  0  0
  -14.2690  -25.8340   -8.4800 C   0  0  0  0  0  0  0  0  0  0  0  0
  -15.0330  -25.6420   -9.7070 C   0  0  0  0  0  0  0  0  0  0  0  0
  -14.2110  -24.9890  -10.7770 C   0  0  0  0  0  0  0  0  0  0  0  0
  -14.6010  -25.3550  -12.1020 C   0  0  0  0  0  0  0  0  0  0  0  0
  -15.0370  -26.8330  -12.1190 N   0  0  2  0  0  0  0  0  0  0  0  0
  -14.6740  -27.3160  -11.2190 H   0  0  0  0  0  0  0  0  0  0  0  0
  -14.6960  -27.4630  -13.3510 C   0  0  0  0  0  0  0  0  0  0  0  0
  -15.6910  -26.8360  -14.3160 C   0  0  0  0  0  0  0  0  0  0  0  0
  -16.9040  -26.4400  -13.5150 C   0  0  0  0  0  0  0  0  0  0  0  0
  -16.5610  -26.8770  -12.0620 C   0  0  2  0  0  0  0  0  0  0  0  0
  -17.0940  -28.2070  -11.8020 C   0  0  0  0  0  0  0  0  0  0  0  0
  -18.2740  -28.0750  -11.2230 C   0  0  2  0  0  0  0  0  0  0  0  0
  -19.1470  -29.0040  -10.7680 O   0  0  0  0  0  0  0  0  0  0  0  0
  -18.6580  -29.8710   -9.6620 C   0  0  0  0  0  0  0  0  0  0  0  0
  -19.5960  -26.1520  -10.1080 O   0  0  0  0  0  0  0  0  0  0  0  0
  -20.7190  -25.7350  -10.7280 C   0  0  0  0  0  0  0  0  0  0  0  0
  -20.8910  -25.2700  -11.8170 O   0  0  0  0  0  0  0  0  0  0  0  0
  -21.9700  -25.8160   -9.7630 C   0  0  2  0  0  0  0  0  0  0  0  0
  -22.2980  -24.3750   -9.4360 O   0  0  0  0  0  0  0  0  0  0  0  0
  -21.6190  -24.0680   -8.8360 H   0  0  0  0  0  0  0  0  0  0  0  0
  -21.7320  -26.4090   -8.4270 C   0  0  0  0  0  0  0  0  0  0  0  0
  -21.7700  -25.3160   -7.3090 C   0  0  0  0  0  0  0  0  0  0  0  0
  -22.9010  -24.9780   -6.8580 O   0  0  0  0  0  0  0  0  0  0  0  0
  -20.5840  -24.8600   -6.9910 O   0  0  0  0  0  0  0  0  0  0  0  0
  -19.6040  -25.8660   -6.4010 C   0  0  0  0  0  0  0  0  0  0  0  0
  -23.2110  -26.4720  -10.3590 C   0  0  0  0  0  0  0  0  0  0  0  0
  -24.5010  -26.4480   -9.5370 C   0  0  0  0  0  0  0  0  0  0  0  0
  -24.8670  -27.8140   -8.9380 C   0  0  0  0  0  0  0  0  0  0  0  0
  -25.4450  -27.6620   -7.5410 C   0  0  0  0  0  0  0  0  0  0  0  0
  -26.1420  -26.3180   -7.4500 C   0  0  0  0  0  0  0  0  0  0  0  0
  -26.4460  -28.7710   -7.1820 C   0  0  0  0  0  0  0  0  0  0  0  0
  -24.3690  -27.6740   -6.5440 O   0  0  0  0  0  0  0  0  0  0  0  0
  -23.9850  -26.8330   -6.5590 H   0  0  0  0  0  0  0  0  0  0  0  0
  1  2  1  0  0  0  0
  1 24  1  1  0  0  0
  2 19  1  6  0  0  0
  2  3  1  0  0  0  0
  3 11  2  0  0  0  0
  3  4  1  0  0  0  0
  4  5  2  0  0  0  0
  5  9  1  0  0  0  0
  5  6  1  0  0  0  0
  6  7  1  0  0  0  0
  8  7  1  0  0  0  0
  9  8  1  0  0  0  0
 10  9  2  0  0  0  0
 11 10  1  0  0  0  0
 12 11  1  0  0  0  0
 13 12  1  0  0  0  0
 14 13  1  0  0  0  0
 14 19  1  1  0  0  0
 14 15  1  0  0  0  0
 16 14  1  0  0  0  0
 17 18  1  0  0  0  0
 17 16  1  0  0  0  0
 19 18  1  6  0  0  0
 19 20  1  0  0  0  0
 20 21  1  0  0  0  0
 21  1  1  0  0  0  0
 21 22  1  6  0  0  0
 22 23  1  0  0  0  0
 25 24  1  0  0  0  0
 25 27  1  0  0  0  0
 26 25  2  0  0  0  0
 27 35  1  6  0  0  0
 27 28  1  0  0  0  0
 27 30  1  0  0  0  0
 28 29  1  0  0  0  0
 30 31  1  0  0  0  0
 31 33  1  0  0  0  0
 31 32  2  0  0  0  0
 33 34  1  0  0  0  0
 35 36  1  0  0  0  0
 36 37  1  0  0  0  0
 37 38  1  0  0  0  0
 38 39  1  0  0  0  0
 38 40  1  0  0  0  0
 38 41  1  0  0  0  0
 42 41  1  0  0  0  0
M  END
>  <minimizedAffinity>
-7.44073248

$$$$

 OpenBabel12271914473D

 42 46  0  0  1  0  0  0  0  0999 V2000
  -26.0570  -24.8250   -4.2170 C   0  0  1  0  0  0  0  0  0  0  0  0
  -27.0640  -24.1810   -3.1300 C   0  0  1  0  0  0  0  0  0  0  0  0
  -28.2310  -25.0250   -2.5390 C   0  0  0  0  0  0  0  0  0  0  0  0
  -28.4500  -26.3260   -2.9730 C   0  0  0  0  0  0  0  0  0  0  0  0
  -29.4640  -27.0660   -2.4180 C   0  0  0  0  0  0  0  0  0  0  0  0
  -29.7830  -28.3390   -2.7560 O   0  0  0  0  0  0  0  0  0  0  0  0
  -30.6860  -28.7110   -1.6590 C   0  0  0  0  0  0  0  0  0  0  0  0
  -31.1930  -27.4630   -1.0450 O   0  0  0  0  0  0  0  0  0  0  0  0
  -30.2530  -26.5710   -1.4560 C   0  0  0  0  0  0  0  0  0  0  0  0
  -30.0850  -25.3020   -0.9870 C   0  0  0  0  0  0  0  0  0  0  0  0
  -29.0240  -24.4750   -1.5500 C   0  0  0  0  0  0  0  0  0  0  0  0
  -28.9430  -23.1390   -0.8740 C   0  0  0  0  0  0  0  0  0  0  0  0
  -27.6270  -22.5810   -0.8670 C   0  0  0  0  0  0  0  0  0  0  0  0
  -26.5920  -23.7090   -0.6940 N   0  0  2  0  0  0  0  0  0  0  0  0
  -27.0970  -24.5960   -0.3300 H   0  0  0  0  0  0  0  0  0  0  0  0
  -25.4660  -23.2710    0.0620 C   0  0  0  0  0  0  0  0  0  0  0  0
  -24.7590  -22.3490   -0.9210 C   0  0  0  0  0  0  0  0  0  0  0  0
  -25.1090  -22.8210   -2.3080 C   0  0  0  0  0  0  0  0  0  0  0  0
  -26.0320  -24.0510   -2.0720 C   0  0  2  0  0  0  0  0  0  0  0  0
  -25.2450  -25.2760   -2.0910 C   0  0  0  0  0  0  0  0  0  0  0  0
  -25.2930  -25.7820   -3.3100 C   0  0  2  0  0  0  0  0  0  0  0  0
  -24.7510  -26.9110   -3.8240 O   0  0  0  0  0  0  0  0  0  0  0  0
  -25.6620  -28.0840   -3.9220 C   0  0  0  0  0  0  0  0  0  0  0  0
  -26.7160  -25.3880   -5.4330 O   0  0  0  0  0  0  0  0  0  0  0  0
  -26.1910  -24.7600   -6.5060 C   0  0  0  0  0  0  0  0  0  0  0  0
  -26.2820  -23.6260   -6.8770 O   0  0  0  0  0  0  0  0  0  0  0  0
  -25.4090  -25.7720   -7.4360 C   0  0  2  0  0  0  0  0  0  0  0  0
  -24.5260  -26.5600   -6.4930 O   0  0  0  0  0  0  0  0  0  0  0  0
  -23.8210  -25.9730   -6.2210 H   0  0  0  0  0  0  0  0  0  0  0  0
  -24.4330  -25.1800   -8.3790 C   0  0  0  0  0  0  0  0  0  0  0  0
  -22.9660  -25.3710   -7.8690 C   0  0  0  0  0  0  0  0  0  0  0  0
  -22.5490  -24.5800   -6.9770 O   0  0  0  0  0  0  0  0  0  0  0  0
  -22.3320  -26.3460   -8.4720 O   0  0  0  0  0  0  0  0  0  0  0  0
  -21.3170  -25.9430   -9.5340 C   0  0  0  0  0  0  0  0  0  0  0  0
  -26.2830  -26.7510   -8.2130 C   0  0  0  0  0  0  0  0  0  0  0  0
  -26.5570  -28.1210   -7.5900 C   0  0  0  0  0  0  0  0  0  0  0  0
  -25.8690  -29.2770   -8.3320 C   0  0  0  0  0  0  0  0  0  0  0  0
  -26.0440  -30.5890   -7.5860 C   0  0  0  0  0  0  0  0  0  0  0  0
  -25.1510  -30.5710   -6.3600 C   0  0  0  0  0  0  0  0  0  0  0  0
  -27.4950  -30.8380   -7.1440 C   0  0  0  0  0  0  0  0  0  0  0  0
  -25.6200  -31.7120   -8.4290 O   0  0  0  0  0  0  0  0  0  0  0  0
  -24.6970  -31.7310   -8.4000 H   0  0  0  0  0  0  0  0  0  0  0  0
  1 24  1  6  0  0  0
  1 21  1  0  0  0  0
  1  2  1  0  0  0  0
  2  3  1  0  0  0  0
  2 19  1  1  0  0  0
  3 11  1  0  0  0  0
  4  3  2  0  0  0  0
  4  5  1  0  0  0  0
  5  9  2  0  0  0  0
  6  5  1  0  0  0  0
  6  7  1  0  0  0  0
  7  8  1  0  0  0  0
  9  8  1  0  0  0  0
  9 10  1  0  0  0  0
 11 10  2  0  0  0  0
 11 12  1  0  0  0  0
 12 13  1  0  0  0  0
 13 14  1  0  0  0  0
 14 19  1  6  0  0  0
 14 15  1  0  0  0  0
 14 16  1  0  0  0  0
 17 16  1  0  0  0  0
 18 17  1  0  0  0  0
 19 18  1  6  0  0  0
 20 19  1  0  0  0  0
 21 22  1  6  0  0  0
 21 20  1  0  0  0  0
 23 22  1  0  0  0  0
 25 24  1  0  0  0  0
 26 25  2  0  0  0  0
 27 30  1  6  0  0  0
 27 25  1  0  0  0  0
 27 28  1  0  0  0  0
 28 29  1  0  0  0  0
 30 31  1  0  0  0  0
 31 32  2  0  0  0  0
 33 31  1  0  0  0  0
 34 33  1  0  0  0  0
 35 36  1  0  0  0  0
 35 27  1  0  0  0  0
 37 36  1  0  0  0  0
 37 38  1  0  0  0  0
 38 40  1  0  0  0  0
 38 39  1  0  0  0  0
 41 42  1  0  0  0  0
 41 38  1  0  0  0  0
M  END
>  <minimizedAffinity>
-7.37330484

$$$$

 OpenBabel12271914473D

 42 46  0  0  1  0  0  0  0  0999 V2000
  -18.6050  -26.4210  -11.1620 C   0  0  1  0  0  0  0  0  0  0  0  0
  -17.0850  -25.8850  -11.0620 C   0  0  1  0  0  0  0  0  0  0  0  0
  -16.2630  -26.0790   -9.7540 C   0  0  0  0  0  0  0  0  0  0  0  0
  -16.8430  -26.6740   -8.6410 C   0  0  0  0  0  0  0  0  0  0  0  0
  -16.0940  -26.8650   -7.5070 C   0  0  0  0  0  0  0  0  0  0  0  0
  -16.5410  -27.4260   -6.3560 O   0  0  0  0  0  0  0  0  0  0  0  0
  -15.2800  -27.6620   -5.6420 C   0  0  0  0  0  0  0  0  0  0  0  0
  -14.2510  -26.7760   -6.2320 O   0  0  0  0  0  0  0  0  0  0  0  0
  -14.8080  -26.5000   -7.4410 C   0  0  0  0  0  0  0  0  0  0  0  0
  -14.1840  -25.9150   -8.5020 C   0  0  0  0  0  0  0  0  0  0  0  0
  -14.9390  -25.6850   -9.7280 C   0  0  0  0  0  0  0  0  0  0  0  0
  -14.0820  -25.0960  -10.8070 C   0  0  0  0  0  0  0  0  0  0  0  0
  -14.5020  -25.4500  -12.1270 C   0  0  0  0  0  0  0  0  0  0  0  0
  -15.0310  -26.8960  -12.1280 N   0  0  2  0  0  0  0  0  0  0  0  0
  -14.6950  -27.3930  -11.2250 H   0  0  0  0  0  0  0  0  0  0  0  0
  -14.7370  -27.5580  -13.3560 C   0  0  0  0  0  0  0  0  0  0  0  0
  -15.6940  -26.8770  -14.3230 C   0  0  0  0  0  0  0  0  0  0  0  0
  -16.8750  -26.3970  -13.5200 C   0  0  0  0  0  0  0  0  0  0  0  0
  -16.5540  -26.8420  -12.0650 C   0  0  2  0  0  0  0  0  0  0  0  0
  -17.1700  -28.1330  -11.7900 C   0  0  0  0  0  0  0  0  0  0  0  0
  -18.3370  -27.9200  -11.2070 C   0  0  2  0  0  0  0  0  0  0  0  0
  -19.2660  -28.7870  -10.7400 O   0  0  0  0  0  0  0  0  0  0  0  0
  -18.7680  -29.8330   -9.8050 C   0  0  0  0  0  0  0  0  0  0  0  0
  -19.5280  -25.9060  -10.1050 O   0  0  0  0  0  0  0  0  0  0  0  0
  -20.7440  -25.7540  -10.6690 C   0  0  0  0  0  0  0  0  0  0  0  0
  -21.0720  -25.2860  -11.7190 O   0  0  0  0  0  0  0  0  0  0  0  0
  -21.8930  -26.2080   -9.6800 C   0  0  2  0  0  0  0  0  0  0  0  0
  -21.4510  -27.5640   -9.1720 O   0  0  0  0  0  0  0  0  0  0  0  0
  -21.5710  -28.1800   -9.8940 H   0  0  0  0  0  0  0  0  0  0  0  0
  -23.2090  -26.5020  -10.2920 C   0  0  0  0  0  0  0  0  0  0  0  0
  -23.4400  -28.0430  -10.4250 C   0  0  0  0  0  0  0  0  0  0  0  0
  -24.1580  -28.6060   -9.5520 O   0  0  0  0  0  0  0  0  0  0  0  0
  -22.8160  -28.5730  -11.4490 O   0  0  0  0  0  0  0  0  0  0  0  0
  -23.1090  -27.9640  -12.8140 C   0  0  0  0  0  0  0  0  0  0  0  0
  -22.1220  -25.2930   -8.4820 C   0  0  0  0  0  0  0  0  0  0  0  0
  -22.5470  -25.9330   -7.1600 C   0  0  0  0  0  0  0  0  0  0  0  0
  -23.9270  -25.4650   -6.6720 C   0  0  0  0  0  0  0  0  0  0  0  0
  -24.7880  -26.6440   -6.2520 C   0  0  0  0  0  0  0  0  0  0  0  0
  -24.6710  -26.8150   -4.7490 C   0  0  0  0  0  0  0  0  0  0  0  0
  -26.2690  -26.4680   -6.6230 C   0  0  0  0  0  0  0  0  0  0  0  0
  -24.3000  -27.8770   -6.8790 O   0  0  0  0  0  0  0  0  0  0  0  0
  -23.5610  -28.1470   -6.3940 H   0  0  0  0  0  0  0  0  0  0  0  0
  1  2  1  0  0  0  0
  1 24  1  1  0  0  0
  2 19  1  6  0  0  0
  2  3  1  0  0  0  0
  3 11  2  0  0  0  0
  3  4  1  0  0  0  0
  4  5  2  0  0  0  0
  5  9  1  0  0  0  0
  5  6  1  0  0  0  0
  6  7  1  0  0  0  0
  8  7  1  0  0  0  0
  9  8  1  0  0  0  0
 10  9  2  0  0  0  0
 11 10  1  0  0  0  0
 12 11  1  0  0  0  0
 13 12  1  0  0  0  0
 14 13  1  0  0  0  0
 14 19  1  1  0  0  0
 14 15  1  0  0  0  0
 16 14  1  0  0  0  0
 17 18  1  0  0  0  0
 17 16  1  0  0  0  0
 19 18  1  6  0  0  0
 19 20  1  0  0  0  0
 20 21  1  0  0  0  0
 21  1  1  0  0  0  0
 21 22  1  6  0  0  0
 22 23  1  0  0  0  0
 25 24  1  0  0  0  0
 25 27  1  0  0  0  0
 26 25  2  0  0  0  0
 27 30  1  6  0  0  0
 27 28  1  0  0  0  0
 27 35  1  0  0  0  0
 29 28  1  0  0  0  0
 31 30  1  0  0  0  0
 31 32  2  0  0  0  0
 33 31  1  0  0  0  0
 34 33  1  0  0  0  0
 35 36  1  0  0  0  0
 36 37  1  0  0  0  0
 37 38  1  0  0  0  0
 38 39  1  0  0  0  0
 40 38  1  0  0  0  0
 41 42  1  0  0  0  0
 41 38  1  0  0  0  0
M  END
>  <minimizedAffinity>
-7.32505655

$$$$
