
 OpenBabel12271914383D

 32 35  0  0  1  0  0  0  0  0999 V2000
  -13.8330  -26.3060   -9.0920 C   0  0  1  0  0  0  0  0  0  0  0  0
  -12.2930  -26.3970   -8.8990 N   0  0  0  0  0  0  0  0  0  0  0  0
  -12.1070  -26.9760   -8.1080 H   0  0  0  0  0  0  0  0  0  0  0  0
  -11.8350  -26.7890   -9.7380 H   0  0  0  0  0  0  0  0  0  0  0  0
  -11.9100  -25.4830   -8.7440 H   0  0  0  0  0  0  0  0  0  0  0  0
  -14.3600  -25.3050   -8.0570 C   0  0  0  0  0  0  0  0  0  0  0  0
  -15.0200  -26.0490   -6.9520 C   0  0  0  0  0  0  0  0  0  0  0  0
  -16.3540  -25.8380   -6.5200 C   0  0  0  0  0  0  0  0  0  0  0  0
  -17.3530  -24.9260   -6.9690 C   0  0  0  0  0  0  0  0  0  0  0  0
  -18.6050  -24.9290   -6.3740 C   0  0  0  0  0  0  0  0  0  0  0  0
  -18.8710  -25.8350   -5.3330 C   0  0  0  0  0  0  0  0  0  0  0  0
  -17.8930  -26.7400   -4.8950 C   0  0  0  0  0  0  0  0  0  0  0  0
  -16.6490  -26.7160   -5.5210 C   0  0  0  0  0  0  0  0  0  0  0  0
  -15.5080  -27.4980   -5.2730 N   0  0  0  0  0  0  0  0  0  0  0  0
  -15.4190  -28.1970   -4.5820 H   0  0  0  0  0  0  0  0  0  0  0  0
  -14.5300  -27.0790   -6.1710 C   0  0  0  0  0  0  0  0  0  0  0  0
  -14.0100  -25.6830  -10.5180 C   0  0  0  0  0  0  0  0  0  0  0  0
  -15.0690  -26.5890  -11.1030 O   0  0  0  0  0  0  0  0  0  0  0  0
  -16.3760  -26.9300  -11.0120 C   0  0  0  0  0  0  0  0  0  0  0  0
  -17.3990  -26.2850  -10.4030 C   0  0  0  0  0  0  0  0  0  0  0  0
  -18.7510  -26.8350  -10.6200 C   0  0  0  0  0  0  0  0  0  0  0  0
  -18.8840  -28.0510  -11.3970 C   0  0  0  0  0  0  0  0  0  0  0  0
  -17.8310  -28.6560  -11.9000 N   0  0  0  0  0  0  0  0  0  0  0  0
  -16.6060  -28.0690  -11.6750 C   0  0  0  0  0  0  0  0  0  0  0  0
  -20.0090  -26.2600  -10.1400 C   0  0  0  0  0  0  0  0  0  0  0  0
  -20.5290  -26.5000   -8.9590 C   0  0  0  0  0  0  0  0  0  0  0  0
  -21.8290  -25.9510   -8.4740 C   0  0  0  0  0  0  0  0  0  0  0  0
  -22.0820  -26.0100   -7.1090 C   0  0  0  0  0  0  0  0  0  0  0  0
  -23.2870  -25.5050   -6.6620 C   0  0  0  0  0  0  0  0  0  0  0  0
  -24.2280  -24.9640   -7.4510 N   0  0  0  0  0  0  0  0  0  0  0  0
  -23.9410  -24.9280   -8.7690 C   0  0  0  0  0  0  0  0  0  0  0  0
  -22.7880  -25.3950   -9.3310 C   0  0  0  0  0  0  0  0  0  0  0  0
  1 17  1  6  0  0  0
  1  2  1  0  0  0  0
  1  6  1  0  0  0  0
  2  5  1  0  0  0  0
  2  3  1  0  0  0  0
  4  2  1  0  0  0  0
  6  7  1  0  0  0  0
  7  8  1  0  0  0  0
  7 16  2  0  0  0  0
  8 13  1  0  0  0  0
  9  8  2  0  0  0  0
  9 10  1  0  0  0  0
 10 11  2  0  0  0  0
 11 12  1  0  0  0  0
 13 14  1  0  0  0  0
 13 12  2  0  0  0  0
 14 15  1  0  0  0  0
 16 14  1  0  0  0  0
 18 19  1  0  0  0  0
 18 17  1  0  0  0  0
 19 20  2  0  0  0  0
 21 20  1  0  0  0  0
 21 25  1  0  0  0  0
 22 21  2  0  0  0  0
 23 24  2  0  0  0  0
 23 22  1  0  0  0  0
 24 19  1  0  0  0  0
 25 26  2  0  0  0  0
 26 27  1  0  0  0  0
 27 28  2  0  0  0  0
 28 29  1  0  0  0  0
 30 29  2  0  0  0  0
 31 30  1  0  0  0  0
 32 31  2  0  0  0  0
 32 27  1  0  0  0  0
M  END
>  <minimizedAffinity>
-8.2735014

$$$$

 OpenBabel12271914383D

 32 35  0  0  1  0  0  0  0  0999 V2000
  -13.8620  -25.5820  -10.1780 C   0  0  1  0  0  0  0  0  0  0  0  0
  -12.6880  -25.2400  -11.1380 N   0  0  0  0  0  0  0  0  0  0  0  0
  -13.0570  -24.7570  -11.9290 H   0  0  0  0  0  0  0  0  0  0  0  0
  -11.9790  -24.6550  -10.6670 H   0  0  0  0  0  0  0  0  0  0  0  0
  -12.2330  -26.0810  -11.4400 H   0  0  0  0  0  0  0  0  0  0  0  0
  -14.5860  -26.8000  -10.7640 C   0  0  0  0  0  0  0  0  0  0  0  0
  -15.9980  -26.4360  -11.0500 C   0  0  0  0  0  0  0  0  0  0  0  0
  -17.1290  -27.1140  -10.5280 C   0  0  0  0  0  0  0  0  0  0  0  0
  -17.2300  -28.2470   -9.6680 C   0  0  0  0  0  0  0  0  0  0  0  0
  -18.4790  -28.7150   -9.2910 C   0  0  0  0  0  0  0  0  0  0  0  0
  -19.6310  -28.0640   -9.7650 C   0  0  0  0  0  0  0  0  0  0  0  0
  -19.5350  -26.9440  -10.6040 C   0  0  0  0  0  0  0  0  0  0  0  0
  -18.2640  -26.4950  -10.9560 C   0  0  0  0  0  0  0  0  0  0  0  0
  -17.8940  -25.4160  -11.7770 N   0  0  0  0  0  0  0  0  0  0  0  0
  -18.5070  -24.8060  -12.2510 H   0  0  0  0  0  0  0  0  0  0  0  0
  -16.5020  -25.3940  -11.8080 C   0  0  0  0  0  0  0  0  0  0  0  0
  -13.1610  -26.0160   -8.8460 C   0  0  0  0  0  0  0  0  0  0  0  0
  -14.1390  -25.4930   -7.8190 O   0  0  0  0  0  0  0  0  0  0  0  0
  -15.3800  -25.6780   -7.3090 C   0  0  0  0  0  0  0  0  0  0  0  0
  -16.5530  -25.1000   -7.6570 C   0  0  0  0  0  0  0  0  0  0  0  0
  -17.7710  -25.6360   -7.0170 C   0  0  0  0  0  0  0  0  0  0  0  0
  -17.6240  -26.6780   -6.0210 C   0  0  0  0  0  0  0  0  0  0  0  0
  -16.4390  -27.1410   -5.6890 N   0  0  0  0  0  0  0  0  0  0  0  0
  -15.3530  -26.6080   -6.3480 C   0  0  0  0  0  0  0  0  0  0  0  0
  -19.1500  -25.2320   -7.2990 C   0  0  0  0  0  0  0  0  0  0  0  0
  -20.2010  -25.9880   -7.0870 C   0  0  0  0  0  0  0  0  0  0  0  0
  -21.6060  -25.6030   -7.4070 C   0  0  0  0  0  0  0  0  0  0  0  0
  -22.5880  -25.9250   -6.4780 C   0  0  0  0  0  0  0  0  0  0  0  0
  -23.8890  -25.5700   -6.7780 C   0  0  0  0  0  0  0  0  0  0  0  0
  -24.2700  -24.9400   -7.8990 N   0  0  0  0  0  0  0  0  0  0  0  0
  -23.2840  -24.6470   -8.7720 C   0  0  0  0  0  0  0  0  0  0  0  0
  -21.9640  -24.9450   -8.5910 C   0  0  0  0  0  0  0  0  0  0  0  0
  1  6  1  6  0  0  0
  1 17  1  0  0  0  0
  2  4  1  0  0  0  0
  2  1  1  0  0  0  0
  3  2  1  0  0  0  0
  5  2  1  0  0  0  0
  7  6  1  0  0  0  0
  7  8  1  0  0  0  0
  8  9  2  0  0  0  0
  9 10  1  0  0  0  0
 11 10  2  0  0  0  0
 12 11  1  0  0  0  0
 13 12  2  0  0  0  0
 13  8  1  0  0  0  0
 14 13  1  0  0  0  0
 15 14  1  0  0  0  0
 16 14  1  0  0  0  0
 16  7  2  0  0  0  0
 17 18  1  0  0  0  0
 18 19  1  0  0  0  0
 19 24  1  0  0  0  0
 20 19  2  0  0  0  0
 20 21  1  0  0  0  0
 21 22  2  0  0  0  0
 22 23  1  0  0  0  0
 24 23  2  0  0  0  0
 25 26  2  0  0  0  0
 25 21  1  0  0  0  0
 27 26  1  0  0  0  0
 27 28  2  0  0  0  0
 29 28  1  0  0  0  0
 30 29  2  0  0  0  0
 31 32  2  0  0  0  0
 31 30  1  0  0  0  0
 32 27  1  0  0  0  0
M  END
>  <minimizedAffinity>
-8.22120571

$$$$

 OpenBabel12271914383D

 32 35  0  0  1  0  0  0  0  0999 V2000
  -25.4840  -24.6560   -5.1490 C   0  0  1  0  0  0  0  0  0  0  0  0
  -26.2360  -23.9710   -6.3250 N   0  0  0  0  0  0  0  0  0  0  0  0
  -26.4280  -23.0260   -6.0710 H   0  0  0  0  0  0  0  0  0  0  0  0
  -25.6740  -23.9960   -7.1920 H   0  0  0  0  0  0  0  0  0  0  0  0
  -27.0970  -24.4510   -6.5100 H   0  0  0  0  0  0  0  0  0  0  0  0
  -26.5320  -25.0040   -4.0850 C   0  0  0  0  0  0  0  0  0  0  0  0
  -26.3940  -24.0670   -2.9390 C   0  0  0  0  0  0  0  0  0  0  0  0
  -27.3830  -23.8540   -1.9470 C   0  0  0  0  0  0  0  0  0  0  0  0
  -28.6850  -24.4130   -1.7820 C   0  0  0  0  0  0  0  0  0  0  0  0
  -29.4630  -24.0370   -0.6980 C   0  0  0  0  0  0  0  0  0  0  0  0
  -28.9560  -23.1060    0.2240 C   0  0  0  0  0  0  0  0  0  0  0  0
  -27.6730  -22.5600    0.0700 C   0  0  0  0  0  0  0  0  0  0  0  0
  -26.9140  -22.9670   -1.0250 C   0  0  0  0  0  0  0  0  0  0  0  0
  -25.6210  -22.5750   -1.4110 N   0  0  0  0  0  0  0  0  0  0  0  0
  -25.0480  -21.9180   -0.9490 H   0  0  0  0  0  0  0  0  0  0  0  0
  -25.3210  -23.2720   -2.5790 C   0  0  0  0  0  0  0  0  0  0  0  0
  -24.9370  -25.9900   -5.7610 C   0  0  0  0  0  0  0  0  0  0  0  0
  -23.5480  -25.5680   -6.1810 O   0  0  0  0  0  0  0  0  0  0  0  0
  -22.5620  -25.8190   -7.0750 C   0  0  0  0  0  0  0  0  0  0  0  0
  -21.2180  -25.7400   -6.9270 C   0  0  0  0  0  0  0  0  0  0  0  0
  -20.3980  -26.2380   -8.0480 C   0  0  0  0  0  0  0  0  0  0  0  0
  -21.0740  -26.7030   -9.2420 C   0  0  0  0  0  0  0  0  0  0  0  0
  -22.3850  -26.6850   -9.3340 N   0  0  0  0  0  0  0  0  0  0  0  0
  -23.0810  -26.2280   -8.2380 C   0  0  0  0  0  0  0  0  0  0  0  0
  -18.9370  -26.3350   -8.0790 C   0  0  0  0  0  0  0  0  0  0  0  0
  -18.1520  -26.0020   -7.0820 C   0  0  0  0  0  0  0  0  0  0  0  0
  -16.6610  -26.0600   -7.1160 C   0  0  0  0  0  0  0  0  0  0  0  0
  -16.0090  -25.2610   -8.0470 C   0  0  0  0  0  0  0  0  0  0  0  0
  -14.6290  -25.3190   -8.0790 C   0  0  0  0  0  0  0  0  0  0  0  0
  -13.8780  -26.0890   -7.2780 N   0  0  0  0  0  0  0  0  0  0  0  0
  -14.5530  -26.8490   -6.3900 C   0  0  0  0  0  0  0  0  0  0  0  0
  -15.9120  -26.8800   -6.2620 C   0  0  0  0  0  0  0  0  0  0  0  0
  1 17  1  6  0  0  0
  1  6  1  0  0  0  0
  2  3  1  0  0  0  0
  2  1  1  0  0  0  0
  4  2  1  0  0  0  0
  5  2  1  0  0  0  0
  6  7  1  0  0  0  0
  7 16  2  0  0  0  0
  7  8  1  0  0  0  0
  8  9  2  0  0  0  0
  8 13  1  0  0  0  0
  9 10  1  0  0  0  0
 10 11  2  0  0  0  0
 12 11  1  0  0  0  0
 13 12  2  0  0  0  0
 14 13  1  0  0  0  0
 14 15  1  0  0  0  0
 16 14  1  0  0  0  0
 18 17  1  0  0  0  0
 19 20  1  0  0  0  0
 19 18  1  0  0  0  0
 21 20  2  0  0  0  0
 22 21  1  0  0  0  0
 23 22  2  0  0  0  0
 23 24  1  0  0  0  0
 24 19  2  0  0  0  0
 25 21  1  0  0  0  0
 25 26  2  0  0  0  0
 27 26  1  0  0  0  0
 27 32  2  0  0  0  0
 28 27  1  0  0  0  0
 29 28  2  0  0  0  0
 29 30  1  0  0  0  0
 30 31  2  0  0  0  0
 31 32  1  0  0  0  0
M  END
>  <minimizedAffinity>
-8.19657516

$$$$

 OpenBabel12271914383D

 32 35  0  0  1  0  0  0  0  0999 V2000
  -16.5480  -26.1380  -14.5050 C   0  0  1  0  0  0  0  0  0  0  0  0
  -16.6740  -26.1610  -16.0550 N   0  0  0  0  0  0  0  0  0  0  0  0
  -17.5340  -25.7260  -16.3090 H   0  0  0  0  0  0  0  0  0  0  0  0
  -15.8830  -25.6680  -16.5010 H   0  0  0  0  0  0  0  0  0  0  0  0
  -16.6650  -27.1080  -16.3870 H   0  0  0  0  0  0  0  0  0  0  0  0
  -17.4410  -27.2590  -13.9620 C   0  0  0  0  0  0  0  0  0  0  0  0
  -18.0930  -26.7990  -12.7080 C   0  0  0  0  0  0  0  0  0  0  0  0
  -18.0190  -27.4760  -11.4640 C   0  0  0  0  0  0  0  0  0  0  0  0
  -17.3700  -28.6910  -11.0930 C   0  0  0  0  0  0  0  0  0  0  0  0
  -17.4450  -29.1380   -9.7820 C   0  0  0  0  0  0  0  0  0  0  0  0
  -18.1610  -28.3840   -8.8370 C   0  0  0  0  0  0  0  0  0  0  0  0
  -18.7920  -27.1840   -9.1970 C   0  0  0  0  0  0  0  0  0  0  0  0
  -18.6900  -26.7600  -10.5200 C   0  0  0  0  0  0  0  0  0  0  0  0
  -19.2270  -25.6160  -11.1350 N   0  0  0  0  0  0  0  0  0  0  0  0
  -19.7880  -24.9290  -10.7020 H   0  0  0  0  0  0  0  0  0  0  0  0
  -18.8360  -25.6570  -12.4710 C   0  0  0  0  0  0  0  0  0  0  0  0
  -15.0530  -26.5180  -14.2300 C   0  0  0  0  0  0  0  0  0  0  0  0
  -14.7720  -25.7110  -12.9840 O   0  0  0  0  0  0  0  0  0  0  0  0
  -14.3150  -25.8010  -11.7130 C   0  0  0  0  0  0  0  0  0  0  0  0
  -14.9270  -26.2790  -10.6050 C   0  0  0  0  0  0  0  0  0  0  0  0
  -14.1000  -26.3930   -9.3880 C   0  0  0  0  0  0  0  0  0  0  0  0
  -12.7290  -25.9260   -9.4410 C   0  0  0  0  0  0  0  0  0  0  0  0
  -12.2270  -25.4110  -10.5400 N   0  0  0  0  0  0  0  0  0  0  0  0
  -13.0540  -25.3600  -11.6400 C   0  0  0  0  0  0  0  0  0  0  0  0
  -14.5170  -26.9610   -8.1040 C   0  0  0  0  0  0  0  0  0  0  0  0
  -15.3650  -26.3880   -7.2830 C   0  0  0  0  0  0  0  0  0  0  0  0
  -15.7680  -26.9380   -5.9550 C   0  0  0  0  0  0  0  0  0  0  0  0
  -17.0100  -26.5650   -5.4560 C   0  0  0  0  0  0  0  0  0  0  0  0
  -17.3790  -27.0730   -4.2250 C   0  0  0  0  0  0  0  0  0  0  0  0
  -16.6260  -27.8960   -3.4810 N   0  0  0  0  0  0  0  0  0  0  0  0
  -15.4280  -28.2300   -4.0040 C   0  0  0  0  0  0  0  0  0  0  0  0
  -14.9500  -27.7950   -5.2070 C   0  0  0  0  0  0  0  0  0  0  0  0
  1 17  1  6  0  0  0
  1  6  1  0  0  0  0
  2  1  1  0  0  0  0
  3  2  1  0  0  0  0
  4  2  1  0  0  0  0
  5  2  1  0  0  0  0
  6  7  1  0  0  0  0
  7 16  2  0  0  0  0
  7  8  1  0  0  0  0
  8  9  2  0  0  0  0
  8 13  1  0  0  0  0
  9 10  1  0  0  0  0
 10 11  2  0  0  0  0
 12 11  1  0  0  0  0
 13 12  2  0  0  0  0
 14 15  1  0  0  0  0
 14 13  1  0  0  0  0
 16 14  1  0  0  0  0
 17 18  1  0  0  0  0
 18 19  1  0  0  0  0
 19 24  2  0  0  0  0
 19 20  1  0  0  0  0
 20 21  2  0  0  0  0
 21 25  1  0  0  0  0
 22 21  1  0  0  0  0
 23 22  2  0  0  0  0
 24 23  1  0  0  0  0
 25 26  2  0  0  0  0
 26 27  1  0  0  0  0
 27 28  2  0  0  0  0
 27 32  1  0  0  0  0
 28 29  1  0  0  0  0
 29 30  2  0  0  0  0
 31 30  1  0  0  0  0
 32 31  2  0  0  0  0
M  END
>  <minimizedAffinity>
-8.12303257

$$$$

 OpenBabel12271914383D

 32 35  0  0  1  0  0  0  0  0999 V2000
  -25.6320  -24.5690   -5.3860 C   0  0  1  0  0  0  0  0  0  0  0  0
  -26.1340  -23.8940   -6.6940 N   0  0  0  0  0  0  0  0  0  0  0  0
  -26.4440  -22.9710   -6.4750 H   0  0  0  0  0  0  0  0  0  0  0  0
  -25.3860  -23.8550   -7.4050 H   0  0  0  0  0  0  0  0  0  0  0  0
  -26.8940  -24.4200   -7.0840 H   0  0  0  0  0  0  0  0  0  0  0  0
  -26.8720  -25.0170   -4.6040 C   0  0  0  0  0  0  0  0  0  0  0  0
  -26.5270  -25.1230   -3.1620 C   0  0  0  0  0  0  0  0  0  0  0  0
  -25.9930  -24.0690   -2.3800 C   0  0  0  0  0  0  0  0  0  0  0  0
  -25.6480  -22.7280   -2.7210 C   0  0  0  0  0  0  0  0  0  0  0  0
  -25.1430  -21.8780   -1.7480 C   0  0  0  0  0  0  0  0  0  0  0  0
  -24.9770  -22.3550   -0.4370 C   0  0  0  0  0  0  0  0  0  0  0  0
  -25.3230  -23.6710   -0.0960 C   0  0  0  0  0  0  0  0  0  0  0  0
  -25.8360  -24.4940   -1.0960 C   0  0  0  0  0  0  0  0  0  0  0  0
  -26.2480  -25.8360   -1.0240 N   0  0  0  0  0  0  0  0  0  0  0  0
  -26.2180  -26.4130   -0.2240 H   0  0  0  0  0  0  0  0  0  0  0  0
  -26.6790  -26.1930   -2.2990 C   0  0  0  0  0  0  0  0  0  0  0  0
  -24.8670  -25.8450   -5.8760 C   0  0  0  0  0  0  0  0  0  0  0  0
  -23.5920  -25.2330   -6.4090 O   0  0  0  0  0  0  0  0  0  0  0  0
  -22.5320  -25.4670   -7.2180 C   0  0  0  0  0  0  0  0  0  0  0  0
  -21.2240  -25.6260   -6.9080 C   0  0  0  0  0  0  0  0  0  0  0  0
  -20.3270  -26.0340   -8.0060 C   0  0  0  0  0  0  0  0  0  0  0  0
  -20.8840  -26.1640   -9.3380 C   0  0  0  0  0  0  0  0  0  0  0  0
  -22.1550  -25.9270   -9.5710 N   0  0  0  0  0  0  0  0  0  0  0  0
  -22.9330  -25.5740   -8.4910 C   0  0  0  0  0  0  0  0  0  0  0  0
  -18.9020  -26.3490   -7.8920 C   0  0  0  0  0  0  0  0  0  0  0  0
  -18.0650  -25.7160   -7.1040 C   0  0  0  0  0  0  0  0  0  0  0  0
  -16.6030  -26.0020   -7.0080 C   0  0  0  0  0  0  0  0  0  0  0  0
  -15.7570  -25.3210   -7.8740 C   0  0  0  0  0  0  0  0  0  0  0  0
  -14.4050  -25.5910   -7.7860 C   0  0  0  0  0  0  0  0  0  0  0  0
  -13.8540  -26.4610   -6.9260 N   0  0  0  0  0  0  0  0  0  0  0  0
  -14.7130  -27.0990   -6.1040 C   0  0  0  0  0  0  0  0  0  0  0  0
  -16.0670  -26.9210   -6.0960 C   0  0  0  0  0  0  0  0  0  0  0  0
  1 17  1  6  0  0  0
  1  6  1  0  0  0  0
  2  3  1  0  0  0  0
  2  1  1  0  0  0  0
  4  2  1  0  0  0  0
  5  2  1  0  0  0  0
  6  7  1  0  0  0  0
  7  8  1  0  0  0  0
  7 16  2  0  0  0  0
  8 13  1  0  0  0  0
  9  8  2  0  0  0  0
  9 10  1  0  0  0  0
 10 11  2  0  0  0  0
 11 12  1  0  0  0  0
 13 14  1  0  0  0  0
 13 12  2  0  0  0  0
 14 15  1  0  0  0  0
 16 14  1  0  0  0  0
 18 17  1  0  0  0  0
 19 20  1  0  0  0  0
 19 18  1  0  0  0  0
 21 25  1  0  0  0  0
 21 20  2  0  0  0  0
 22 21  1  0  0  0  0
 23 22  2  0  0  0  0
 23 24  1  0  0  0  0
 24 19  2  0  0  0  0
 25 26  2  0  0  0  0
 26 27  1  0  0  0  0
 27 32  2  0  0  0  0
 28 29  2  0  0  0  0
 28 27  1  0  0  0  0
 29 30  1  0  0  0  0
 30 31  2  0  0  0  0
 31 32  1  0  0  0  0
M  END
>  <minimizedAffinity>
-8.11941147

$$$$

 OpenBabel12271914383D

 32 35  0  0  1  0  0  0  0  0999 V2000
  -22.3630  -25.5700   -8.5860 C   0  0  1  0  0  0  0  0  0  0  0  0
  -22.8230  -24.0840   -8.5740 N   0  0  0  0  0  0  0  0  0  0  0  0
  -22.0620  -23.5140   -8.8730 H   0  0  0  0  0  0  0  0  0  0  0  0
  -23.6370  -23.9420   -9.1940 H   0  0  0  0  0  0  0  0  0  0  0  0
  -23.0990  -23.8160   -7.6480 H   0  0  0  0  0  0  0  0  0  0  0  0
  -21.5160  -25.7900   -7.3270 C   0  0  0  0  0  0  0  0  0  0  0  0
  -20.1360  -26.1710   -7.7280 C   0  0  0  0  0  0  0  0  0  0  0  0
  -19.0540  -26.3500   -6.8310 C   0  0  0  0  0  0  0  0  0  0  0  0
  -18.9770  -26.2140   -5.4130 C   0  0  0  0  0  0  0  0  0  0  0  0
  -17.7780  -26.4600   -4.7620 C   0  0  0  0  0  0  0  0  0  0  0  0
  -16.6520  -26.8410   -5.5120 C   0  0  0  0  0  0  0  0  0  0  0  0
  -16.7260  -26.9840   -6.9060 C   0  0  0  0  0  0  0  0  0  0  0  0
  -17.9490  -26.7370   -7.5270 C   0  0  0  0  0  0  0  0  0  0  0  0
  -18.2870  -26.7990   -8.8890 N   0  0  0  0  0  0  0  0  0  0  0  0
  -17.6780  -27.0230   -9.6320 H   0  0  0  0  0  0  0  0  0  0  0  0
  -19.6350  -26.4610   -8.9840 C   0  0  0  0  0  0  0  0  0  0  0  0
  -23.6890  -26.3900   -8.4400 C   0  0  0  0  0  0  0  0  0  0  0  0
  -23.7060  -26.6550   -6.9520 O   0  0  0  0  0  0  0  0  0  0  0  0
  -24.4700  -26.5470   -5.8390 C   0  0  0  0  0  0  0  0  0  0  0  0
  -24.9140  -25.4420   -5.1970 C   0  0  0  0  0  0  0  0  0  0  0  0
  -25.8720  -25.6560   -4.0940 C   0  0  0  0  0  0  0  0  0  0  0  0
  -26.2100  -27.0170   -3.7310 C   0  0  0  0  0  0  0  0  0  0  0  0
  -25.6820  -28.0420   -4.3610 N   0  0  0  0  0  0  0  0  0  0  0  0
  -24.8160  -27.7610   -5.3950 C   0  0  0  0  0  0  0  0  0  0  0  0
  -26.5500  -24.6160   -3.3190 C   0  0  0  0  0  0  0  0  0  0  0  0
  -26.0130  -23.9790   -2.3050 C   0  0  0  0  0  0  0  0  0  0  0  0
  -26.7080  -22.9450   -1.4840 C   0  0  0  0  0  0  0  0  0  0  0  0
  -25.9260  -21.9560   -0.9000 C   0  0  0  0  0  0  0  0  0  0  0  0
  -26.5720  -21.0020   -0.1370 C   0  0  0  0  0  0  0  0  0  0  0  0
  -27.8950  -20.9640    0.0790 N   0  0  0  0  0  0  0  0  0  0  0  0
  -28.6150  -21.9440   -0.5060 C   0  0  0  0  0  0  0  0  0  0  0  0
  -28.0950  -22.9410   -1.2800 C   0  0  0  0  0  0  0  0  0  0  0  0
  1  2  1  0  0  0  0
  1 17  1  1  0  0  0
  1  6  1  0  0  0  0
  2  5  1  0  0  0  0
  3  2  1  0  0  0  0
  4  2  1  0  0  0  0
  7  6  1  0  0  0  0
  7  8  1  0  0  0  0
  8  9  2  0  0  0  0
  9 10  1  0  0  0  0
 11 10  2  0  0  0  0
 12 11  1  0  0  0  0
 13 12  2  0  0  0  0
 13  8  1  0  0  0  0
 14 13  1  0  0  0  0
 15 14  1  0  0  0  0
 16 14  1  0  0  0  0
 16  7  2  0  0  0  0
 17 18  1  0  0  0  0
 18 19  1  0  0  0  0
 19 24  2  0  0  0  0
 19 20  1  0  0  0  0
 20 21  2  0  0  0  0
 21 22  1  0  0  0  0
 21 25  1  0  0  0  0
 23 22  2  0  0  0  0
 24 23  1  0  0  0  0
 25 26  2  0  0  0  0
 26 27  1  0  0  0  0
 27 32  2  0  0  0  0
 27 28  1  0  0  0  0
 28 29  2  0  0  0  0
 29 30  1  0  0  0  0
 31 30  2  0  0  0  0
 32 31  1  0  0  0  0
M  END
>  <minimizedAffinity>
-7.39139986

$$$$

 OpenBabel12271914383D

 32 35  0  0  1  0  0  0  0  0999 V2000
  -14.0790  -26.0700  -16.1280 C   0  0  1  0  0  0  0  0  0  0  0  0
  -15.0050  -25.4100  -17.1880 N   0  0  0  0  0  0  0  0  0  0  0  0
  -14.5510  -25.4520  -18.0750 H   0  0  0  0  0  0  0  0  0  0  0  0
  -15.9190  -25.8890  -17.2350 H   0  0  0  0  0  0  0  0  0  0  0  0
  -15.1790  -24.4520  -16.9450 H   0  0  0  0  0  0  0  0  0  0  0  0
  -12.9900  -25.0490  -15.7800 C   0  0  0  0  0  0  0  0  0  0  0  0
  -11.8110  -25.2760  -16.6580 C   0  0  0  0  0  0  0  0  0  0  0  0
  -10.8540  -24.2870  -16.9970 C   0  0  0  0  0  0  0  0  0  0  0  0
  -10.7610  -22.9090  -16.6410 C   0  0  0  0  0  0  0  0  0  0  0  0
   -9.7000  -22.1480  -17.1070 C   0  0  0  0  0  0  0  0  0  0  0  0
   -8.7290  -22.7480  -17.9270 C   0  0  0  0  0  0  0  0  0  0  0  0
   -8.8130  -24.1060  -18.2720 C   0  0  0  0  0  0  0  0  0  0  0  0
   -9.8880  -24.8430  -17.7790 C   0  0  0  0  0  0  0  0  0  0  0  0
  -10.2070  -26.1970  -17.9770 N   0  0  0  0  0  0  0  0  0  0  0  0
   -9.7020  -26.8410  -18.5270 H   0  0  0  0  0  0  0  0  0  0  0  0
  -11.3820  -26.4400  -17.2690 C   0  0  0  0  0  0  0  0  0  0  0  0
  -14.9980  -26.2620  -14.8740 C   0  0  0  0  0  0  0  0  0  0  0  0
  -14.1330  -25.6670  -13.7860 O   0  0  0  0  0  0  0  0  0  0  0  0
  -13.9690  -25.6040  -12.4440 C   0  0  0  0  0  0  0  0  0  0  0  0
  -14.8690  -25.7970  -11.4520 C   0  0  0  0  0  0  0  0  0  0  0  0
  -14.3410  -25.8170  -10.0730 C   0  0  0  0  0  0  0  0  0  0  0  0
  -12.9300  -25.5600   -9.8730 C   0  0  0  0  0  0  0  0  0  0  0  0
  -12.1310  -25.3140  -10.8870 N   0  0  0  0  0  0  0  0  0  0  0  0
  -12.6930  -25.3360  -12.1440 C   0  0  0  0  0  0  0  0  0  0  0  0
  -15.1050  -26.0950   -8.8550 C   0  0  0  0  0  0  0  0  0  0  0  0
  -14.5750  -26.5020   -7.7260 C   0  0  0  0  0  0  0  0  0  0  0  0
  -15.3460  -26.8260   -6.4900 C   0  0  0  0  0  0  0  0  0  0  0  0
  -14.7390  -27.6500   -5.5520 C   0  0  0  0  0  0  0  0  0  0  0  0
  -15.4570  -27.9510   -4.4100 C   0  0  0  0  0  0  0  0  0  0  0  0
  -16.6950  -27.5060   -4.1460 N   0  0  0  0  0  0  0  0  0  0  0  0
  -17.2450  -26.7090   -5.0860 C   0  0  0  0  0  0  0  0  0  0  0  0
  -16.6400  -26.3410   -6.2520 C   0  0  0  0  0  0  0  0  0  0  0  0
  1  6  1  1  0  0  0
  1 17  1  0  0  0  0
  2  5  1  0  0  0  0
  2  1  1  0  0  0  0
  3  2  1  0  0  0  0
  4  2  1  0  0  0  0
  7  6  1  0  0  0  0
  8  7  1  0  0  0  0
  8  9  1  0  0  0  0
 10  9  2  0  0  0  0
 11 10  1  0  0  0  0
 12 11  2  0  0  0  0
 12 13  1  0  0  0  0
 13  8  2  0  0  0  0
 14 13  1  0  0  0  0
 14 16  1  0  0  0  0
 15 14  1  0  0  0  0
 16  7  2  0  0  0  0
 17 18  1  0  0  0  0
 18 19  1  0  0  0  0
 19 24  2  0  0  0  0
 19 20  1  0  0  0  0
 20 21  2  0  0  0  0
 21 22  1  0  0  0  0
 21 25  1  0  0  0  0
 23 22  2  0  0  0  0
 24 23  1  0  0  0  0
 25 26  2  0  0  0  0
 26 27  1  0  0  0  0
 27 32  2  0  0  0  0
 27 28  1  0  0  0  0
 28 29  2  0  0  0  0
 29 30  1  0  0  0  0
 31 30  2  0  0  0  0
 32 31  1  0  0  0  0
M  END
>  <minimizedAffinity>
-7.23661137

$$$$

 OpenBabel12271914383D

 32 35  0  0  1  0  0  0  0  0999 V2000
  -14.8140  -26.1940   -9.9400 C   0  0  1  0  0  0  0  0  0  0  0  0
  -13.4790  -25.9900  -10.7120 N   0  0  0  0  0  0  0  0  0  0  0  0
  -12.7580  -26.4870  -10.2340 H   0  0  0  0  0  0  0  0  0  0  0  0
  -13.5560  -26.3270  -11.6850 H   0  0  0  0  0  0  0  0  0  0  0  0
  -13.2480  -25.0140  -10.7480 H   0  0  0  0  0  0  0  0  0  0  0  0
  -14.7790  -25.2620   -8.7230 C   0  0  0  0  0  0  0  0  0  0  0  0
  -15.0510  -26.0540   -7.4950 C   0  0  0  0  0  0  0  0  0  0  0  0
  -16.2170  -25.9340   -6.6980 C   0  0  0  0  0  0  0  0  0  0  0  0
  -17.3560  -25.0840   -6.8220 C   0  0  0  0  0  0  0  0  0  0  0  0
  -18.3840  -25.1730   -5.8960 C   0  0  0  0  0  0  0  0  0  0  0  0
  -18.2880  -26.1010   -4.8450 C   0  0  0  0  0  0  0  0  0  0  0  0
  -17.1720  -26.9440   -4.7250 C   0  0  0  0  0  0  0  0  0  0  0  0
  -16.1620  -26.8350   -5.6780 C   0  0  0  0  0  0  0  0  0  0  0  0
  -14.9530  -27.5440   -5.7830 N   0  0  0  0  0  0  0  0  0  0  0  0
  -14.6290  -28.2390   -5.1630 H   0  0  0  0  0  0  0  0  0  0  0  0
  -14.2980  -27.0560   -6.9110 C   0  0  0  0  0  0  0  0  0  0  0  0
  -15.9170  -25.6800  -10.9270 C   0  0  0  0  0  0  0  0  0  0  0  0
  -17.1560  -26.3070  -10.3310 O   0  0  0  0  0  0  0  0  0  0  0  0
  -18.5090  -26.2540  -10.3360 C   0  0  0  0  0  0  0  0  0  0  0  0
  -19.3880  -26.4780   -9.3310 C   0  0  0  0  0  0  0  0  0  0  0  0
  -20.8060  -26.1800   -9.6130 C   0  0  0  0  0  0  0  0  0  0  0  0
  -21.1650  -25.7440  -10.9480 C   0  0  0  0  0  0  0  0  0  0  0  0
  -20.2590  -25.6150  -11.8900 N   0  0  0  0  0  0  0  0  0  0  0  0
  -18.9540  -25.8890  -11.5440 C   0  0  0  0  0  0  0  0  0  0  0  0
  -21.9160  -26.2590   -8.6620 C   0  0  0  0  0  0  0  0  0  0  0  0
  -23.1760  -26.3810   -9.0040 C   0  0  0  0  0  0  0  0  0  0  0  0
  -24.3190  -26.4240   -8.0440 C   0  0  0  0  0  0  0  0  0  0  0  0
  -24.8410  -25.2100   -7.6130 C   0  0  0  0  0  0  0  0  0  0  0  0
  -25.8960  -25.2530   -6.7220 C   0  0  0  0  0  0  0  0  0  0  0  0
  -26.4490  -26.3790   -6.2460 N   0  0  0  0  0  0  0  0  0  0  0  0
  -25.9100  -27.5320   -6.6910 C   0  0  0  0  0  0  0  0  0  0  0  0
  -24.8680  -27.6220   -7.5690 C   0  0  0  0  0  0  0  0  0  0  0  0
  1 17  1  6  0  0  0
  1  6  1  0  0  0  0
  2  3  1  0  0  0  0
  2  1  1  0  0  0  0
  4  2  1  0  0  0  0
  5  2  1  0  0  0  0
  6  7  1  0  0  0  0
  7 16  2  0  0  0  0
  7  8  1  0  0  0  0
  8 13  1  0  0  0  0
  9  8  2  0  0  0  0
  9 10  1  0  0  0  0
 10 11  2  0  0  0  0
 11 12  1  0  0  0  0
 13 12  2  0  0  0  0
 14 13  1  0  0  0  0
 14 15  1  0  0  0  0
 16 14  1  0  0  0  0
 17 18  1  0  0  0  0
 19 18  1  0  0  0  0
 19 20  2  0  0  0  0
 21 20  1  0  0  0  0
 21 25  1  0  0  0  0
 22 21  2  0  0  0  0
 23 24  2  0  0  0  0
 23 22  1  0  0  0  0
 24 19  1  0  0  0  0
 26 25  2  0  0  0  0
 26 27  1  0  0  0  0
 27 28  2  0  0  0  0
 27 32  1  0  0  0  0
 28 29  1  0  0  0  0
 29 30  2  0  0  0  0
 31 30  1  0  0  0  0
 32 31  2  0  0  0  0
M  END
>  <minimizedAffinity>
-7.21968555

$$$$

 OpenBabel12271914383D

 32 35  0  0  1  0  0  0  0  0999 V2000
  -14.4920  -26.5240   -9.2010 C   0  0  1  0  0  0  0  0  0  0  0  0
  -13.8050  -27.8920   -8.9270 N   0  0  0  0  0  0  0  0  0  0  0  0
  -14.4050  -28.4360   -8.3450 H   0  0  0  0  0  0  0  0  0  0  0  0
  -13.6130  -28.3960   -9.8080 H   0  0  0  0  0  0  0  0  0  0  0  0
  -12.9270  -27.7490   -8.4640 H   0  0  0  0  0  0  0  0  0  0  0  0
  -14.2990  -25.6620   -7.9490 C   0  0  0  0  0  0  0  0  0  0  0  0
  -15.4990  -25.7880   -7.0800 C   0  0  0  0  0  0  0  0  0  0  0  0
  -15.5900  -26.6370   -5.9480 C   0  0  0  0  0  0  0  0  0  0  0  0
  -14.6500  -27.5430   -5.3750 C   0  0  0  0  0  0  0  0  0  0  0  0
  -14.9910  -28.2610   -4.2390 C   0  0  0  0  0  0  0  0  0  0  0  0
  -16.2630  -28.0840   -3.6670 C   0  0  0  0  0  0  0  0  0  0  0  0
  -17.1870  -27.1860   -4.2230 C   0  0  0  0  0  0  0  0  0  0  0  0
  -16.8080  -26.4750   -5.3600 C   0  0  0  0  0  0  0  0  0  0  0  0
  -17.5360  -25.5330   -6.1080 N   0  0  0  0  0  0  0  0  0  0  0  0
  -18.4620  -25.2400   -5.9340 H   0  0  0  0  0  0  0  0  0  0  0  0
  -16.7070  -25.1190   -7.1470 C   0  0  0  0  0  0  0  0  0  0  0  0
  -13.6580  -25.8970  -10.3690 C   0  0  0  0  0  0  0  0  0  0  0  0
  -14.6830  -25.8710  -11.4790 O   0  0  0  0  0  0  0  0  0  0  0  0
  -16.0120  -25.9400  -11.7300 C   0  0  0  0  0  0  0  0  0  0  0  0
  -17.0520  -26.0470  -10.8700 C   0  0  0  0  0  0  0  0  0  0  0  0
  -18.4050  -25.9340  -11.4490 C   0  0  0  0  0  0  0  0  0  0  0  0
  -18.5290  -25.7920  -12.8860 C   0  0  0  0  0  0  0  0  0  0  0  0
  -17.4700  -25.7630  -13.6620 N   0  0  0  0  0  0  0  0  0  0  0  0
  -16.2410  -25.8500  -13.0460 C   0  0  0  0  0  0  0  0  0  0  0  0
  -19.6680  -25.9310  -10.7090 C   0  0  0  0  0  0  0  0  0  0  0  0
  -20.8530  -25.8710  -11.2690 C   0  0  0  0  0  0  0  0  0  0  0  0
  -22.1460  -25.8280  -10.5240 C   0  0  0  0  0  0  0  0  0  0  0  0
  -22.2560  -24.9150   -9.4820 C   0  0  0  0  0  0  0  0  0  0  0  0
  -23.4520  -24.8800   -8.7920 C   0  0  0  0  0  0  0  0  0  0  0  0
  -24.5100  -25.6620   -9.0550 N   0  0  0  0  0  0  0  0  0  0  0  0
  -24.3580  -26.5330  -10.0740 C   0  0  0  0  0  0  0  0  0  0  0  0
  -23.2280  -26.6640  -10.8290 C   0  0  0  0  0  0  0  0  0  0  0  0
  1 17  1  6  0  0  0
  1  2  1  0  0  0  0
  1  6  1  0  0  0  0
  2  5  1  0  0  0  0
  2  3  1  0  0  0  0
  4  2  1  0  0  0  0
  6  7  1  0  0  0  0
  7  8  1  0  0  0  0
  8  9  2  0  0  0  0
  8 13  1  0  0  0  0
  9 10  1  0  0  0  0
 10 11  2  0  0  0  0
 12 11  1  0  0  0  0
 13 12  2  0  0  0  0
 14 15  1  0  0  0  0
 14 13  1  0  0  0  0
 16  7  2  0  0  0  0
 16 14  1  0  0  0  0
 18 17  1  0  0  0  0
 19 18  1  0  0  0  0
 19 20  2  0  0  0  0
 21 20  1  0  0  0  0
 21 25  1  0  0  0  0
 22 21  2  0  0  0  0
 23 24  2  0  0  0  0
 23 22  1  0  0  0  0
 24 19  1  0  0  0  0
 26 25  2  0  0  0  0
 26 27  1  0  0  0  0
 27 28  1  0  0  0  0
 28 29  2  0  0  0  0
 30 29  1  0  0  0  0
 31 30  2  0  0  0  0
 32 27  2  0  0  0  0
 32 31  1  0  0  0  0
M  END
>  <minimizedAffinity>
-7.0194602

$$$$
