
 OpenBabel12271914403D

 32 35  0  0  1  0  0  0  0  0999 V2000
  -14.3410  -25.6150  -11.2210 C   0  0  0  0  0  0  0  0  0  0  0  0
  -15.0930  -25.8610  -10.0770 C   0  0  0  0  0  0  0  0  0  0  0  0
  -14.5380  -25.9490   -8.8110 C   0  0  0  0  0  0  0  0  0  0  0  0
  -13.1470  -25.8290   -8.7690 C   0  0  0  0  0  0  0  0  0  0  0  0
  -12.3560  -25.6010   -9.8530 N   0  0  0  0  0  0  0  0  0  0  0  0
  -12.9650  -25.4630  -11.0610 C   0  0  0  0  0  0  0  0  0  0  0  0
  -15.3850  -26.1530   -7.6250 C   0  0  0  0  0  0  0  0  0  0  0  0
  -16.6350  -25.5310   -7.5110 C   0  0  0  0  0  0  0  0  0  0  0  0
  -17.4850  -25.7150   -6.4130 C   0  0  0  0  0  0  0  0  0  0  0  0
  -17.0300  -26.5450   -5.3950 C   0  0  0  0  0  0  0  0  0  0  0  0
  -17.5840  -26.9200   -4.1980 N   0  0  0  0  0  0  0  0  0  0  0  0
  -18.4770  -26.6570   -3.8070 H   0  0  0  0  0  0  0  0  0  0  0  0
  -16.8110  -27.7490   -3.4960 N   0  0  0  0  0  0  0  0  0  0  0  0
  -15.7240  -27.9190   -4.2490 C   0  0  0  0  0  0  0  0  0  0  0  0
  -14.6100  -28.8010   -3.8100 C   0  0  0  0  0  0  0  0  0  0  0  0
  -15.8070  -27.1810   -5.4570 C   0  0  0  0  0  0  0  0  0  0  0  0
  -14.9780  -26.9940   -6.5760 C   0  0  0  0  0  0  0  0  0  0  0  0
  -15.1030  -25.6400  -12.3380 O   0  0  0  0  0  0  0  0  0  0  0  0
  -15.2150  -26.7760  -13.1710 C   0  0  0  0  0  0  0  0  0  0  0  0
  -16.6610  -27.2910  -13.2590 C   0  0  1  0  0  0  0  0  0  0  0  0
  -16.8440  -27.9940  -14.5870 N   0  0  0  0  0  0  0  0  0  0  0  0
  -16.2640  -28.8360  -14.6750 H   0  0  0  0  0  0  0  0  0  0  0  0
  -16.5810  -27.3720  -15.3700 H   0  0  0  0  0  0  0  0  0  0  0  0
  -17.8320  -28.2430  -14.7460 H   0  0  0  0  0  0  0  0  0  0  0  0
  -16.9370  -28.2550  -12.1020 C   0  0  0  0  0  0  0  0  0  0  0  0
  -17.9030  -27.7110  -11.0860 C   0  0  0  0  0  0  0  0  0  0  0  0
  -18.1300  -28.4010   -9.8900 C   0  0  0  0  0  0  0  0  0  0  0  0
  -19.0450  -27.9040   -8.9650 C   0  0  0  0  0  0  0  0  0  0  0  0
  -19.7210  -26.7110   -9.2170 C   0  0  0  0  0  0  0  0  0  0  0  0
  -20.9640  -26.0480   -7.9690 Br  0  0  0  0  0  0  0  0  0  0  0  0
  -19.4900  -26.0150  -10.3980 C   0  0  0  0  0  0  0  0  0  0  0  0
  -18.5900  -26.5150  -11.3330 C   0  0  0  0  0  0  0  0  0  0  0  0
  1  6  2  0  0  0  0
  1  2  1  0  0  0  0
  2  3  2  0  0  0  0
  3  4  1  0  0  0  0
  3  7  1  0  0  0  0
  5  4  2  0  0  0  0
  6  5  1  0  0  0  0
  7  8  2  0  0  0  0
  7 17  1  0  0  0  0
  8  9  1  0  0  0  0
  9 10  2  0  0  0  0
 10 11  1  0  0  0  0
 11 12  1  0  0  0  0
 11 13  1  0  0  0  0
 14 15  1  0  0  0  0
 14 13  2  0  0  0  0
 16 10  1  0  0  0  0
 16 14  1  0  0  0  0
 17 16  2  0  0  0  0
 18  1  1  0  0  0  0
 19 18  1  0  0  0  0
 20 19  1  1  0  0  0
 20 25  1  0  0  0  0
 21 20  1  0  0  0  0
 22 21  1  0  0  0  0
 23 21  1  0  0  0  0
 24 21  1  0  0  0  0
 25 26  1  0  0  0  0
 26 27  1  0  0  0  0
 27 28  2  0  0  0  0
 29 28  1  0  0  0  0
 29 30  1  0  0  0  0
 31 29  2  0  0  0  0
 32 26  2  0  0  0  0
 32 31  1  0  0  0  0
M  END
>  <minimizedAffinity>
-8.91159916

$$$$

 OpenBabel12271914403D

 32 35  0  0  1  0  0  0  0  0999 V2000
  -14.4820  -25.4490  -10.9820 C   0  0  0  0  0  0  0  0  0  0  0  0
  -15.2020  -25.7360   -9.8270 C   0  0  0  0  0  0  0  0  0  0  0  0
  -14.6020  -25.9980   -8.6060 C   0  0  0  0  0  0  0  0  0  0  0  0
  -13.2060  -26.0100   -8.6270 C   0  0  0  0  0  0  0  0  0  0  0  0
  -12.4460  -25.7500   -9.7260 N   0  0  0  0  0  0  0  0  0  0  0  0
  -13.0920  -25.4400  -10.8820 C   0  0  0  0  0  0  0  0  0  0  0  0
  -15.4120  -26.2380   -7.4000 C   0  0  0  0  0  0  0  0  0  0  0  0
  -16.6670  -25.6400   -7.2390 C   0  0  0  0  0  0  0  0  0  0  0  0
  -17.4830  -25.8580   -6.1210 C   0  0  0  0  0  0  0  0  0  0  0  0
  -16.9850  -26.6990   -5.1320 C   0  0  0  0  0  0  0  0  0  0  0  0
  -17.4990  -27.1060   -3.9280 N   0  0  0  0  0  0  0  0  0  0  0  0
  -18.3840  -26.8660   -3.5060 H   0  0  0  0  0  0  0  0  0  0  0  0
  -16.6920  -27.9360   -3.2640 N   0  0  0  0  0  0  0  0  0  0  0  0
  -15.6250  -28.0730   -4.0510 C   0  0  0  0  0  0  0  0  0  0  0  0
  -14.4850  -28.9440   -3.6610 C   0  0  0  0  0  0  0  0  0  0  0  0
  -15.7550  -27.3130   -5.2410 C   0  0  0  0  0  0  0  0  0  0  0  0
  -14.9610  -27.0920   -6.3800 C   0  0  0  0  0  0  0  0  0  0  0  0
  -15.2920  -25.2950  -12.0540 O   0  0  0  0  0  0  0  0  0  0  0  0
  -15.6990  -26.3720  -12.8750 C   0  0  0  0  0  0  0  0  0  0  0  0
  -14.6240  -26.7560  -13.9040 C   0  0  1  0  0  0  0  0  0  0  0  0
  -14.6900  -28.2500  -14.1360 N   0  0  0  0  0  0  0  0  0  0  0  0
  -15.5750  -28.5490  -14.5630 H   0  0  0  0  0  0  0  0  0  0  0  0
  -14.6060  -28.7640  -13.2430 H   0  0  0  0  0  0  0  0  0  0  0  0
  -13.9040  -28.5740  -14.7210 H   0  0  0  0  0  0  0  0  0  0  0  0
  -14.8680  -26.0000  -15.2120 C   0  0  0  0  0  0  0  0  0  0  0  0
  -13.6660  -25.2410  -15.7000 C   0  0  0  0  0  0  0  0  0  0  0  0
  -13.5910  -24.8200  -17.0330 C   0  0  0  0  0  0  0  0  0  0  0  0
  -12.4630  -24.1380  -17.4830 C   0  0  0  0  0  0  0  0  0  0  0  0
  -11.4160  -23.8570  -16.6060 C   0  0  0  0  0  0  0  0  0  0  0  0
   -9.8890  -22.9450  -17.2200 Br  0  0  0  0  0  0  0  0  0  0  0  0
  -11.4910  -24.2620  -15.2790 C   0  0  0  0  0  0  0  0  0  0  0  0
  -12.6070  -24.9570  -14.8270 C   0  0  0  0  0  0  0  0  0  0  0  0
  1  6  2  0  0  0  0
  1  2  1  0  0  0  0
  2  3  2  0  0  0  0
  3  7  1  0  0  0  0
  4  3  1  0  0  0  0
  5  4  2  0  0  0  0
  6  5  1  0  0  0  0
  7  8  2  0  0  0  0
  7 17  1  0  0  0  0
  8  9  1  0  0  0  0
  9 10  2  0  0  0  0
 10 11  1  0  0  0  0
 11 12  1  0  0  0  0
 11 13  1  0  0  0  0
 14 15  1  0  0  0  0
 14 13  2  0  0  0  0
 16 10  1  0  0  0  0
 16 14  1  0  0  0  0
 17 16  2  0  0  0  0
 18  1  1  0  0  0  0
 19 18  1  0  0  0  0
 20 25  1  6  0  0  0
 20 19  1  0  0  0  0
 21 20  1  0  0  0  0
 21 23  1  0  0  0  0
 22 21  1  0  0  0  0
 24 21  1  0  0  0  0
 26 25  1  0  0  0  0
 26 32  2  0  0  0  0
 27 26  1  0  0  0  0
 28 27  2  0  0  0  0
 28 29  1  0  0  0  0
 29 31  2  0  0  0  0
 30 29  1  0  0  0  0
 31 32  1  0  0  0  0
M  END
>  <minimizedAffinity>
-8.61171436

$$$$

 OpenBabel12271914403D

 32 35  0  0  1  0  0  0  0  0999 V2000
  -16.3300  -28.1150  -12.8770 C   0  0  0  0  0  0  0  0  0  0  0  0
  -16.8710  -27.6480  -11.6840 C   0  0  0  0  0  0  0  0  0  0  0  0
  -18.1700  -27.9150  -11.2860 C   0  0  0  0  0  0  0  0  0  0  0  0
  -18.9280  -28.6480  -12.2030 C   0  0  0  0  0  0  0  0  0  0  0  0
  -18.4610  -29.1210  -13.3900 N   0  0  0  0  0  0  0  0  0  0  0  0
  -17.1580  -28.8790  -13.6990 C   0  0  0  0  0  0  0  0  0  0  0  0
  -18.6760  -27.4460   -9.9860 C   0  0  0  0  0  0  0  0  0  0  0  0
  -17.9670  -27.6860   -8.8020 C   0  0  0  0  0  0  0  0  0  0  0  0
  -18.3960  -27.2380   -7.5470 C   0  0  0  0  0  0  0  0  0  0  0  0
  -19.5990  -26.5410   -7.5030 C   0  0  0  0  0  0  0  0  0  0  0  0
  -20.3050  -25.9900   -6.4650 N   0  0  0  0  0  0  0  0  0  0  0  0
  -20.0740  -25.9790   -5.4820 H   0  0  0  0  0  0  0  0  0  0  0  0
  -21.4320  -25.3930   -6.8520 N   0  0  0  0  0  0  0  0  0  0  0  0
  -21.4670  -25.5580   -8.1750 C   0  0  0  0  0  0  0  0  0  0  0  0
  -22.5840  -25.0150   -8.9920 C   0  0  0  0  0  0  0  0  0  0  0  0
  -20.3360  -26.2780   -8.6380 C   0  0  0  0  0  0  0  0  0  0  0  0
  -19.8770  -26.7240   -9.8900 C   0  0  0  0  0  0  0  0  0  0  0  0
  -15.0690  -27.6660  -13.0670 O   0  0  0  0  0  0  0  0  0  0  0  0
  -14.7250  -26.2950  -13.0450 C   0  0  0  0  0  0  0  0  0  0  0  0
  -13.6630  -25.9810  -11.9790 C   0  0  1  0  0  0  0  0  0  0  0  0
  -12.4730  -25.3390  -12.6570 N   0  0  0  0  0  0  0  0  0  0  0  0
  -12.6960  -24.4290  -13.0770 H   0  0  0  0  0  0  0  0  0  0  0  0
  -12.1210  -25.9370  -13.4240 H   0  0  0  0  0  0  0  0  0  0  0  0
  -11.6830  -25.2270  -12.0030 H   0  0  0  0  0  0  0  0  0  0  0  0
  -14.2520  -25.0370  -10.9270 C   0  0  0  0  0  0  0  0  0  0  0  0
  -14.4380  -25.6790   -9.5810 C   0  0  0  0  0  0  0  0  0  0  0  0
  -15.0930  -24.9900   -8.5540 C   0  0  0  0  0  0  0  0  0  0  0  0
  -15.2390  -25.5820   -7.3020 C   0  0  0  0  0  0  0  0  0  0  0  0
  -14.7520  -26.8680   -7.0740 C   0  0  0  0  0  0  0  0  0  0  0  0
  -14.9420  -27.6620   -5.3770 Br  0  0  0  0  0  0  0  0  0  0  0  0
  -14.1120  -27.5630   -8.0930 C   0  0  0  0  0  0  0  0  0  0  0  0
  -13.9480  -26.9710   -9.3400 C   0  0  0  0  0  0  0  0  0  0  0  0
  1  2  2  0  0  0  0
  2  3  1  0  0  0  0
  3  7  1  0  0  0  0
  4  3  2  0  0  0  0
  5  4  1  0  0  0  0
  6  5  2  0  0  0  0
  6  1  1  0  0  0  0
  7 17  2  0  0  0  0
  7  8  1  0  0  0  0
  8  9  2  0  0  0  0
  9 10  1  0  0  0  0
 10 11  1  0  0  0  0
 11 12  1  0  0  0  0
 13 11  1  0  0  0  0
 14 13  2  0  0  0  0
 15 14  1  0  0  0  0
 16 14  1  0  0  0  0
 16 10  2  0  0  0  0
 17 16  1  0  0  0  0
 18 19  1  0  0  0  0
 18  1  1  0  0  0  0
 20 19  1  6  0  0  0
 20 25  1  0  0  0  0
 21 24  1  0  0  0  0
 21 20  1  0  0  0  0
 22 21  1  0  0  0  0
 23 21  1  0  0  0  0
 25 26  1  0  0  0  0
 26 32  2  0  0  0  0
 26 27  1  0  0  0  0
 27 28  2  0  0  0  0
 28 29  1  0  0  0  0
 29 30  1  0  0  0  0
 31 29  2  0  0  0  0
 32 31  1  0  0  0  0
M  END
>  <minimizedAffinity>
-8.60877514

$$$$

 OpenBabel12271914403D

 32 35  0  0  1  0  0  0  0  0999 V2000
  -22.6390  -25.3300   -7.4610 C   0  0  0  0  0  0  0  0  0  0  0  0
  -21.3980  -25.6240   -6.9080 C   0  0  0  0  0  0  0  0  0  0  0  0
  -20.3280  -26.0890   -7.6540 C   0  0  0  0  0  0  0  0  0  0  0  0
  -20.6010  -26.3000   -9.0070 C   0  0  0  0  0  0  0  0  0  0  0  0
  -21.7970  -26.0450   -9.6040 N   0  0  0  0  0  0  0  0  0  0  0  0
  -22.7920  -25.5310   -8.8320 C   0  0  0  0  0  0  0  0  0  0  0  0
  -19.0160  -26.3300   -7.0300 C   0  0  0  0  0  0  0  0  0  0  0  0
  -18.8470  -26.2430   -5.6420 C   0  0  0  0  0  0  0  0  0  0  0  0
  -17.6250  -26.4870   -5.0020 C   0  0  0  0  0  0  0  0  0  0  0  0
  -16.5420  -26.8100   -5.8130 C   0  0  0  0  0  0  0  0  0  0  0  0
  -15.2300  -27.0840   -5.5270 N   0  0  0  0  0  0  0  0  0  0  0  0
  -14.7730  -27.1120   -4.6260 H   0  0  0  0  0  0  0  0  0  0  0  0
  -14.5000  -27.3540   -6.6090 N   0  0  0  0  0  0  0  0  0  0  0  0
  -15.3530  -27.2510   -7.6290 C   0  0  0  0  0  0  0  0  0  0  0  0
  -14.9160  -27.4940   -9.0290 C   0  0  0  0  0  0  0  0  0  0  0  0
  -16.6550  -26.9070   -7.1840 C   0  0  0  0  0  0  0  0  0  0  0  0
  -17.8950  -26.6740   -7.8020 C   0  0  0  0  0  0  0  0  0  0  0  0
  -23.5340  -24.9550   -6.5180 O   0  0  0  0  0  0  0  0  0  0  0  0
  -24.7800  -25.5970   -6.3370 C   0  0  0  0  0  0  0  0  0  0  0  0
  -25.8200  -24.6730   -5.6840 C   0  0  1  0  0  0  0  0  0  0  0  0
  -27.0500  -24.6300   -6.5640 N   0  0  0  0  0  0  0  0  0  0  0  0
  -27.5210  -25.5390   -6.6360 H   0  0  0  0  0  0  0  0  0  0  0  0
  -26.8010  -24.3520   -7.5280 H   0  0  0  0  0  0  0  0  0  0  0  0
  -27.7240  -23.9230   -6.2330 H   0  0  0  0  0  0  0  0  0  0  0  0
  -26.1770  -25.2010   -4.2920 C   0  0  0  0  0  0  0  0  0  0  0  0
  -26.3390  -24.1170   -3.2620 C   0  0  0  0  0  0  0  0  0  0  0  0
  -25.4580  -23.0300   -3.2380 C   0  0  0  0  0  0  0  0  0  0  0  0
  -25.6000  -22.0430   -2.2660 C   0  0  0  0  0  0  0  0  0  0  0  0
  -26.6280  -22.1240   -1.3280 C   0  0  0  0  0  0  0  0  0  0  0  0
  -26.8100  -20.7940   -0.0090 Br  0  0  0  0  0  0  0  0  0  0  0  0
  -27.5130  -23.1950   -1.3550 C   0  0  0  0  0  0  0  0  0  0  0  0
  -27.3670  -24.1920   -2.3130 C   0  0  0  0  0  0  0  0  0  0  0  0
  1  2  1  0  0  0  0
  1 18  1  0  0  0  0
  3  7  1  0  0  0  0
  3  2  2  0  0  0  0
  4  3  1  0  0  0  0
  5  4  2  0  0  0  0
  5  6  1  0  0  0  0
  6  1  2  0  0  0  0
  7  8  2  0  0  0  0
  8  9  1  0  0  0  0
 10 11  1  0  0  0  0
 10  9  2  0  0  0  0
 11 12  1  0  0  0  0
 13 11  1  0  0  0  0
 14 16  1  0  0  0  0
 14 13  2  0  0  0  0
 15 14  1  0  0  0  0
 16 10  1  0  0  0  0
 17 16  2  0  0  0  0
 17  7  1  0  0  0  0
 18 19  1  0  0  0  0
 20 19  1  6  0  0  0
 20 25  1  0  0  0  0
 21 24  1  0  0  0  0
 21 20  1  0  0  0  0
 22 21  1  0  0  0  0
 23 21  1  0  0  0  0
 25 26  1  0  0  0  0
 26 27  2  0  0  0  0
 26 32  1  0  0  0  0
 27 28  1  0  0  0  0
 28 29  2  0  0  0  0
 29 30  1  0  0  0  0
 31 29  1  0  0  0  0
 32 31  2  0  0  0  0
M  END
>  <minimizedAffinity>
-8.2066431

$$$$

 OpenBabel12271914403D

 32 35  0  0  1  0  0  0  0  0999 V2000
  -15.3250  -25.3350  -11.1610 C   0  0  0  0  0  0  0  0  0  0  0  0
  -15.7010  -25.7790   -9.8990 C   0  0  0  0  0  0  0  0  0  0  0  0
  -14.7880  -26.1340   -8.9190 C   0  0  0  0  0  0  0  0  0  0  0  0
  -13.4500  -26.0690   -9.3100 C   0  0  0  0  0  0  0  0  0  0  0  0
  -13.0190  -25.6560  -10.5330 N   0  0  0  0  0  0  0  0  0  0  0  0
  -13.9600  -25.2610  -11.4340 C   0  0  0  0  0  0  0  0  0  0  0  0
  -15.2370  -26.5430   -7.5770 C   0  0  0  0  0  0  0  0  0  0  0  0
  -14.3800  -27.2200   -6.7010 C   0  0  0  0  0  0  0  0  0  0  0  0
  -14.7540  -27.6060   -5.4080 C   0  0  0  0  0  0  0  0  0  0  0  0
  -16.0530  -27.3060   -5.0120 C   0  0  0  0  0  0  0  0  0  0  0  0
  -16.7390  -27.5510   -3.8490 N   0  0  0  0  0  0  0  0  0  0  0  0
  -16.4160  -28.0140   -3.0120 H   0  0  0  0  0  0  0  0  0  0  0  0
  -17.9890  -27.0880   -3.8680 N   0  0  0  0  0  0  0  0  0  0  0  0
  -18.1270  -26.5310   -5.0720 C   0  0  0  0  0  0  0  0  0  0  0  0
  -19.4010  -25.8830   -5.4810 C   0  0  0  0  0  0  0  0  0  0  0  0
  -16.9370  -26.6420   -5.8350 C   0  0  0  0  0  0  0  0  0  0  0  0
  -16.5330  -26.2500   -7.1230 C   0  0  0  0  0  0  0  0  0  0  0  0
  -16.3970  -25.1130  -11.9560 O   0  0  0  0  0  0  0  0  0  0  0  0
  -16.6640  -25.8680  -13.1210 C   0  0  0  0  0  0  0  0  0  0  0  0
  -18.1710  -26.0400  -13.3680 C   0  0  1  0  0  0  0  0  0  0  0  0
  -18.3870  -26.3750  -14.8280 N   0  0  0  0  0  0  0  0  0  0  0  0
  -17.9760  -27.2770  -15.0950 H   0  0  0  0  0  0  0  0  0  0  0  0
  -17.9490  -25.6620  -15.4360 H   0  0  0  0  0  0  0  0  0  0  0  0
  -19.3890  -26.3740  -15.0690 H   0  0  0  0  0  0  0  0  0  0  0  0
  -18.7150  -27.1600  -12.4770 C   0  0  0  0  0  0  0  0  0  0  0  0
  -19.5910  -26.6660  -11.3590 C   0  0  0  0  0  0  0  0  0  0  0  0
  -20.7310  -25.9040  -11.6410 C   0  0  0  0  0  0  0  0  0  0  0  0
  -21.5230  -25.4290  -10.5990 C   0  0  0  0  0  0  0  0  0  0  0  0
  -21.1960  -25.7250   -9.2770 C   0  0  0  0  0  0  0  0  0  0  0  0
  -22.2630  -25.0720   -7.8710 Br  0  0  0  0  0  0  0  0  0  0  0  0
  -20.0730  -26.4920   -8.9920 C   0  0  0  0  0  0  0  0  0  0  0  0
  -19.2680  -26.9560  -10.0270 C   0  0  0  0  0  0  0  0  0  0  0  0
  1  2  1  0  0  0  0
  2  3  2  0  0  0  0
  3  7  1  0  0  0  0
  4  3  1  0  0  0  0
  5  4  2  0  0  0  0
  6  1  2  0  0  0  0
  6  5  1  0  0  0  0
  7 17  2  0  0  0  0
  7  8  1  0  0  0  0
  8  9  2  0  0  0  0
  9 10  1  0  0  0  0
 10 11  1  0  0  0  0
 11 12  1  0  0  0  0
 13 11  1  0  0  0  0
 14 13  2  0  0  0  0
 15 14  1  0  0  0  0
 16 14  1  0  0  0  0
 16 10  2  0  0  0  0
 17 16  1  0  0  0  0
 18  1  1  0  0  0  0
 19 18  1  0  0  0  0
 20 19  1  6  0  0  0
 20 25  1  0  0  0  0
 21 20  1  0  0  0  0
 22 21  1  0  0  0  0
 23 21  1  0  0  0  0
 24 21  1  0  0  0  0
 25 26  1  0  0  0  0
 26 32  1  0  0  0  0
 27 26  2  0  0  0  0
 27 28  1  0  0  0  0
 28 29  2  0  0  0  0
 29 31  1  0  0  0  0
 29 30  1  0  0  0  0
 32 31  2  0  0  0  0
M  END
>  <minimizedAffinity>
-8.04681492

$$$$

 OpenBabel12271914403D

 32 35  0  0  1  0  0  0  0  0999 V2000
  -19.3410  -25.7000   -6.3670 C   0  0  0  0  0  0  0  0  0  0  0  0
  -18.2150  -25.5810   -7.1730 C   0  0  0  0  0  0  0  0  0  0  0  0
  -16.9580  -26.0180   -6.7870 C   0  0  0  0  0  0  0  0  0  0  0  0
  -16.8890  -26.5420   -5.4940 C   0  0  0  0  0  0  0  0  0  0  0  0
  -17.9510  -26.6720   -4.6530 N   0  0  0  0  0  0  0  0  0  0  0  0
  -19.1710  -26.2810   -5.1110 C   0  0  0  0  0  0  0  0  0  0  0  0
  -15.8080  -25.9230   -7.7010 C   0  0  0  0  0  0  0  0  0  0  0  0
  -14.4950  -26.0200   -7.2260 C   0  0  0  0  0  0  0  0  0  0  0  0
  -13.3710  -25.9600   -8.0610 C   0  0  0  0  0  0  0  0  0  0  0  0
  -13.6040  -25.7730   -9.4190 C   0  0  0  0  0  0  0  0  0  0  0  0
  -12.7550  -25.6520  -10.4890 N   0  0  0  0  0  0  0  0  0  0  0  0
  -11.7450  -25.6820  -10.4990 H   0  0  0  0  0  0  0  0  0  0  0  0
  -13.3900  -25.4860  -11.6490 N   0  0  0  0  0  0  0  0  0  0  0  0
  -14.6850  -25.4950  -11.3320 C   0  0  0  0  0  0  0  0  0  0  0  0
  -15.7360  -25.3450  -12.3730 C   0  0  0  0  0  0  0  0  0  0  0  0
  -14.8780  -25.6710   -9.9380 C   0  0  0  0  0  0  0  0  0  0  0  0
  -15.9900  -25.7510   -9.0830 C   0  0  0  0  0  0  0  0  0  0  0  0
  -20.4320  -25.1410   -6.9410 O   0  0  0  0  0  0  0  0  0  0  0  0
  -21.6970  -25.7720   -6.9710 C   0  0  0  0  0  0  0  0  0  0  0  0
  -21.9390  -26.5240   -8.2890 C   0  0  1  0  0  0  0  0  0  0  0  0
  -23.4280  -26.7330   -8.4600 N   0  0  0  0  0  0  0  0  0  0  0  0
  -23.9440  -25.8510   -8.5660 H   0  0  0  0  0  0  0  0  0  0  0  0
  -23.8280  -27.2100   -7.6350 H   0  0  0  0  0  0  0  0  0  0  0  0
  -23.6310  -27.3450   -9.2640 H   0  0  0  0  0  0  0  0  0  0  0  0
  -21.3750  -25.7120   -9.4580 C   0  0  0  0  0  0  0  0  0  0  0  0
  -20.3470  -26.4550  -10.2640 C   0  0  0  0  0  0  0  0  0  0  0  0
  -20.0220  -26.0300  -11.5570 C   0  0  0  0  0  0  0  0  0  0  0  0
  -19.0870  -26.7380  -12.3070 C   0  0  0  0  0  0  0  0  0  0  0  0
  -18.4580  -27.8590  -11.7670 C   0  0  0  0  0  0  0  0  0  0  0  0
  -17.2020  -28.8210  -12.7870 Br  0  0  0  0  0  0  0  0  0  0  0  0
  -18.7670  -28.2790  -10.4790 C   0  0  0  0  0  0  0  0  0  0  0  0
  -19.7130  -27.5860   -9.7310 C   0  0  0  0  0  0  0  0  0  0  0  0
  1  6  2  0  0  0  0
  2  3  2  0  0  0  0
  2  1  1  0  0  0  0
  3  4  1  0  0  0  0
  4  5  2  0  0  0  0
  6  5  1  0  0  0  0
  7  8  1  0  0  0  0
  7  3  1  0  0  0  0
  9  8  2  0  0  0  0
 10  9  1  0  0  0  0
 11 10  1  0  0  0  0
 12 11  1  0  0  0  0
 13 14  2  0  0  0  0
 13 11  1  0  0  0  0
 14 16  1  0  0  0  0
 15 14  1  0  0  0  0
 16 10  2  0  0  0  0
 16 17  1  0  0  0  0
 17  7  2  0  0  0  0
 18  1  1  0  0  0  0
 19 18  1  0  0  0  0
 20 25  1  6  0  0  0
 20 19  1  0  0  0  0
 21 20  1  0  0  0  0
 21 23  1  0  0  0  0
 22 21  1  0  0  0  0
 24 21  1  0  0  0  0
 26 32  1  0  0  0  0
 26 25  1  0  0  0  0
 27 26  2  0  0  0  0
 28 29  2  0  0  0  0
 28 27  1  0  0  0  0
 29 31  1  0  0  0  0
 30 29  1  0  0  0  0
 31 32  2  0  0  0  0
M  END
>  <minimizedAffinity>
-7.94281197

$$$$

 OpenBabel12271914403D

 32 35  0  0  1  0  0  0  0  0999 V2000
  -19.1990  -26.5660   -9.5750 C   0  0  0  0  0  0  0  0  0  0  0  0
  -18.0110  -26.7180  -10.2800 C   0  0  0  0  0  0  0  0  0  0  0  0
  -17.9530  -27.2400  -11.5620 C   0  0  0  0  0  0  0  0  0  0  0  0
  -19.1790  -27.6600  -12.0820 C   0  0  0  0  0  0  0  0  0  0  0  0
  -20.3720  -27.5500  -11.4370 N   0  0  0  0  0  0  0  0  0  0  0  0
  -20.3740  -26.9730  -10.2050 C   0  0  0  0  0  0  0  0  0  0  0  0
  -16.6750  -27.3260  -12.2890 C   0  0  0  0  0  0  0  0  0  0  0  0
  -15.5890  -26.5130  -11.9430 C   0  0  0  0  0  0  0  0  0  0  0  0
  -14.3470  -26.5770  -12.5890 C   0  0  0  0  0  0  0  0  0  0  0  0
  -14.2260  -27.4870  -13.6330 C   0  0  0  0  0  0  0  0  0  0  0  0
  -13.1840  -27.7880  -14.4720 N   0  0  0  0  0  0  0  0  0  0  0  0
  -12.2560  -27.3920  -14.4930 H   0  0  0  0  0  0  0  0  0  0  0  0
  -13.4790  -28.7440  -15.3550 N   0  0  0  0  0  0  0  0  0  0  0  0
  -14.7440  -29.0730  -15.0900 C   0  0  0  0  0  0  0  0  0  0  0  0
  -15.4450  -30.1300  -15.8650 C   0  0  0  0  0  0  0  0  0  0  0  0
  -15.2650  -28.3100  -14.0140 C   0  0  0  0  0  0  0  0  0  0  0  0
  -16.4960  -28.2390  -13.3400 C   0  0  0  0  0  0  0  0  0  0  0  0
  -18.9850  -26.0970   -8.3240 O   0  0  0  0  0  0  0  0  0  0  0  0
  -18.8080  -26.9400   -7.2030 C   0  0  0  0  0  0  0  0  0  0  0  0
  -18.4180  -26.1530   -5.9420 C   0  0  1  0  0  0  0  0  0  0  0  0
  -19.4540  -26.4140   -4.8700 N   0  0  0  0  0  0  0  0  0  0  0  0
  -19.4750  -27.3950   -4.5670 H   0  0  0  0  0  0  0  0  0  0  0  0
  -20.4020  -26.1930   -5.2160 H   0  0  0  0  0  0  0  0  0  0  0  0
  -19.3050  -25.8080   -4.0490 H   0  0  0  0  0  0  0  0  0  0  0  0
  -17.0320  -26.5960   -5.4650 C   0  0  0  0  0  0  0  0  0  0  0  0
  -15.9440  -26.3530   -6.4740 C   0  0  0  0  0  0  0  0  0  0  0  0
  -15.8840  -25.1390   -7.1680 C   0  0  0  0  0  0  0  0  0  0  0  0
  -14.8890  -24.9310   -8.1190 C   0  0  0  0  0  0  0  0  0  0  0  0
  -13.9400  -25.9210   -8.3700 C   0  0  0  0  0  0  0  0  0  0  0  0
  -12.6020  -25.6410   -9.6640 Br  0  0  0  0  0  0  0  0  0  0  0  0
  -13.9870  -27.1240   -7.6760 C   0  0  0  0  0  0  0  0  0  0  0  0
  -14.9880  -27.3440   -6.7360 C   0  0  0  0  0  0  0  0  0  0  0  0
  1 18  1  0  0  0  0
  2  1  2  0  0  0  0
  3  2  1  0  0  0  0
  4  3  2  0  0  0  0
  4  5  1  0  0  0  0
  5  6  2  0  0  0  0
  6  1  1  0  0  0  0
  7  8  1  0  0  0  0
  7  3  1  0  0  0  0
  9  8  2  0  0  0  0
 10  9  1  0  0  0  0
 11 10  1  0  0  0  0
 12 11  1  0  0  0  0
 13 14  2  0  0  0  0
 13 11  1  0  0  0  0
 14 16  1  0  0  0  0
 15 14  1  0  0  0  0
 16 10  2  0  0  0  0
 16 17  1  0  0  0  0
 17  7  2  0  0  0  0
 18 19  1  0  0  0  0
 20 19  1  6  0  0  0
 20 25  1  0  0  0  0
 20 21  1  0  0  0  0
 21 22  1  0  0  0  0
 21 24  1  0  0  0  0
 23 21  1  0  0  0  0
 26 25  1  0  0  0  0
 27 26  2  0  0  0  0
 28 27  1  0  0  0  0
 29 28  2  0  0  0  0
 29 31  1  0  0  0  0
 30 29  1  0  0  0  0
 31 32  2  0  0  0  0
 32 26  1  0  0  0  0
M  END
>  <minimizedAffinity>
-7.75598383

$$$$

 OpenBabel12271914403D

 32 35  0  0  1  0  0  0  0  0999 V2000
  -19.1600  -25.8340   -6.0120 C   0  0  0  0  0  0  0  0  0  0  0  0
  -18.0930  -25.6740   -6.8900 C   0  0  0  0  0  0  0  0  0  0  0  0
  -16.8190  -26.1510   -6.6270 C   0  0  0  0  0  0  0  0  0  0  0  0
  -16.6650  -26.7600   -5.3800 C   0  0  0  0  0  0  0  0  0  0  0  0
  -17.6650  -26.9350   -4.4740 N   0  0  0  0  0  0  0  0  0  0  0  0
  -18.9080  -26.5000   -4.8140 C   0  0  0  0  0  0  0  0  0  0  0  0
  -15.7380  -26.0070   -7.6160 C   0  0  0  0  0  0  0  0  0  0  0  0
  -14.3920  -26.0760   -7.2330 C   0  0  0  0  0  0  0  0  0  0  0  0
  -13.3310  -25.9700   -8.1400 C   0  0  0  0  0  0  0  0  0  0  0  0
  -13.6610  -25.7670   -9.4760 C   0  0  0  0  0  0  0  0  0  0  0  0
  -12.8910  -25.6040  -10.5990 N   0  0  0  0  0  0  0  0  0  0  0  0
  -11.8840  -25.6050  -10.6780 H   0  0  0  0  0  0  0  0  0  0  0  0
  -13.6080  -25.4360  -11.7100 N   0  0  0  0  0  0  0  0  0  0  0  0
  -14.8780  -25.4870  -11.3060 C   0  0  0  0  0  0  0  0  0  0  0  0
  -16.0010  -25.3490  -12.2700 C   0  0  0  0  0  0  0  0  0  0  0  0
  -14.9690  -25.6910   -9.9050 C   0  0  0  0  0  0  0  0  0  0  0  0
  -16.0180  -25.8170   -8.9780 C   0  0  0  0  0  0  0  0  0  0  0  0
  -20.2800  -25.2260   -6.4660 O   0  0  0  0  0  0  0  0  0  0  0  0
  -21.2360  -25.8770   -7.2790 C   0  0  0  0  0  0  0  0  0  0  0  0
  -22.6390  -25.2680   -7.1250 C   0  0  1  0  0  0  0  0  0  0  0  0
  -22.9790  -24.5100   -8.3900 N   0  0  0  0  0  0  0  0  0  0  0  0
  -23.0500  -25.1200   -9.2130 H   0  0  0  0  0  0  0  0  0  0  0  0
  -22.2490  -23.8110   -8.6060 H   0  0  0  0  0  0  0  0  0  0  0  0
  -23.8560  -23.9780   -8.2850 H   0  0  0  0  0  0  0  0  0  0  0  0
  -23.6600  -26.3820   -6.8780 C   0  0  0  0  0  0  0  0  0  0  0  0
  -24.6330  -26.0700   -5.7750 C   0  0  0  0  0  0  0  0  0  0  0  0
  -25.4040  -24.9030   -5.8230 C   0  0  0  0  0  0  0  0  0  0  0  0
  -26.2850  -24.6090   -4.7850 C   0  0  0  0  0  0  0  0  0  0  0  0
  -26.4150  -25.4830   -3.7070 C   0  0  0  0  0  0  0  0  0  0  0  0
  -27.5980  -25.0770   -2.3000 Br  0  0  0  0  0  0  0  0  0  0  0  0
  -25.6610  -26.6490   -3.6590 C   0  0  0  0  0  0  0  0  0  0  0  0
  -24.7670  -26.9400   -4.6850 C   0  0  0  0  0  0  0  0  0  0  0  0
  1  6  2  0  0  0  0
  2  3  2  0  0  0  0
  2  1  1  0  0  0  0
  3  4  1  0  0  0  0
  4  5  2  0  0  0  0
  6  5  1  0  0  0  0
  7  8  1  0  0  0  0
  7  3  1  0  0  0  0
  9  8  2  0  0  0  0
 10  9  1  0  0  0  0
 11 10  1  0  0  0  0
 12 11  1  0  0  0  0
 13 14  2  0  0  0  0
 13 11  1  0  0  0  0
 14 16  1  0  0  0  0
 15 14  1  0  0  0  0
 16 10  2  0  0  0  0
 16 17  1  0  0  0  0
 17  7  2  0  0  0  0
 18  1  1  0  0  0  0
 19 18  1  0  0  0  0
 20 19  1  6  0  0  0
 20 25  1  0  0  0  0
 21 24  1  0  0  0  0
 21 20  1  0  0  0  0
 22 21  1  0  0  0  0
 23 21  1  0  0  0  0
 25 26  1  0  0  0  0
 26 32  1  0  0  0  0
 27 26  2  0  0  0  0
 27 28  1  0  0  0  0
 28 29  2  0  0  0  0
 29 31  1  0  0  0  0
 29 30  1  0  0  0  0
 32 31  2  0  0  0  0
M  END
>  <minimizedAffinity>
-7.70731688

$$$$

 OpenBabel12271914403D

 32 35  0  0  1  0  0  0  0  0999 V2000
  -16.9020  -26.1190   -6.0300 C   0  0  0  0  0  0  0  0  0  0  0  0
  -16.1840  -25.8320   -7.1850 C   0  0  0  0  0  0  0  0  0  0  0  0
  -15.0110  -26.4840   -7.5280 C   0  0  0  0  0  0  0  0  0  0  0  0
  -14.5630  -27.4210   -6.5950 C   0  0  0  0  0  0  0  0  0  0  0  0
  -15.2140  -27.7370   -5.4420 N   0  0  0  0  0  0  0  0  0  0  0  0
  -16.3930  -27.1070   -5.1880 C   0  0  0  0  0  0  0  0  0  0  0  0
  -14.3190  -26.1830   -8.7930 C   0  0  0  0  0  0  0  0  0  0  0  0
  -12.9710  -25.8010   -8.8080 C   0  0  0  0  0  0  0  0  0  0  0  0
  -12.2650  -25.5300   -9.9870 C   0  0  0  0  0  0  0  0  0  0  0  0
  -12.9690  -25.6330  -11.1820 C   0  0  0  0  0  0  0  0  0  0  0  0
  -12.6020  -25.4240  -12.4860 N   0  0  0  0  0  0  0  0  0  0  0  0
  -11.7020  -25.1460  -12.8510 H   0  0  0  0  0  0  0  0  0  0  0  0
  -13.5910  -25.6390  -13.3530 N   0  0  0  0  0  0  0  0  0  0  0  0
  -14.6330  -25.9940  -12.6000 C   0  0  0  0  0  0  0  0  0  0  0  0
  -15.9470  -26.3320  -13.2080 C   0  0  0  0  0  0  0  0  0  0  0  0
  -14.2970  -26.0040  -11.2220 C   0  0  0  0  0  0  0  0  0  0  0  0
  -14.9800  -26.2880  -10.0270 C   0  0  0  0  0  0  0  0  0  0  0  0
  -17.9730  -25.3050   -5.8880 O   0  0  0  0  0  0  0  0  0  0  0  0
  -19.2740  -25.7820   -5.6090 C   0  0  0  0  0  0  0  0  0  0  0  0
  -19.9570  -26.3670   -6.8550 C   0  0  1  0  0  0  0  0  0  0  0  0
  -21.4510  -26.1610   -6.7290 N   0  0  0  0  0  0  0  0  0  0  0  0
  -21.7180  -25.1690   -6.7290 H   0  0  0  0  0  0  0  0  0  0  0  0
  -21.8030  -26.5590   -5.8420 H   0  0  0  0  0  0  0  0  0  0  0  0
  -21.9620  -26.6500   -7.4790 H   0  0  0  0  0  0  0  0  0  0  0  0
  -19.4260  -25.6690   -8.1100 C   0  0  0  0  0  0  0  0  0  0  0  0
  -19.0500  -26.6210   -9.2120 C   0  0  0  0  0  0  0  0  0  0  0  0
  -18.4070  -27.8280   -8.9130 C   0  0  0  0  0  0  0  0  0  0  0  0
  -18.0400  -28.6920   -9.9410 C   0  0  0  0  0  0  0  0  0  0  0  0
  -18.3290  -28.3690  -11.2660 C   0  0  0  0  0  0  0  0  0  0  0  0
  -17.8230  -29.5360  -12.6540 Br  0  0  0  0  0  0  0  0  0  0  0  0
  -18.9790  -27.1790  -11.5680 C   0  0  0  0  0  0  0  0  0  0  0  0
  -19.3330  -26.3030  -10.5470 C   0  0  0  0  0  0  0  0  0  0  0  0
  1 18  1  0  0  0  0
  1  6  2  0  0  0  0
  2  1  1  0  0  0  0
  3  2  2  0  0  0  0
  3  4  1  0  0  0  0
  4  5  2  0  0  0  0
  5  6  1  0  0  0  0
  7  3  1  0  0  0  0
  8  7  1  0  0  0  0
  9  8  2  0  0  0  0
 10  9  1  0  0  0  0
 11 10  1  0  0  0  0
 12 11  1  0  0  0  0
 13 14  2  0  0  0  0
 13 11  1  0  0  0  0
 14 16  1  0  0  0  0
 15 14  1  0  0  0  0
 16 10  2  0  0  0  0
 16 17  1  0  0  0  0
 17  7  2  0  0  0  0
 18 19  1  0  0  0  0
 20 25  1  6  0  0  0
 20 21  1  0  0  0  0
 20 19  1  0  0  0  0
 21 23  1  0  0  0  0
 22 21  1  0  0  0  0
 24 21  1  0  0  0  0
 26 27  1  0  0  0  0
 26 25  1  0  0  0  0
 28 27  2  0  0  0  0
 29 28  1  0  0  0  0
 30 29  1  0  0  0  0
 31 29  2  0  0  0  0
 31 32  1  0  0  0  0
 32 26  2  0  0  0  0
M  END
>  <minimizedAffinity>
-7.5434289

$$$$
