
 OpenBabel12271914533D

 27 29  0  0  1  0  0  0  0  0999 V2000
  -17.3830  -25.7960   -8.0390 C   0  0  1  0  0  0  0  0  0  0  0  0
  -16.6070  -25.7750   -9.2830 N   0  0  0  0  0  0  0  0  0  0  0  0
  -16.1350  -26.7230   -9.4680 H   0  0  0  0  0  0  0  0  0  0  0  0
  -17.5800  -25.6970  -10.3130 O   0  0  0  0  0  0  0  0  0  0  0  0
  -18.7230  -26.4640   -9.9490 C   0  0  2  0  0  0  0  0  0  0  0  0
  -18.4740  -27.9190  -10.4730 C   0  0  1  0  0  0  0  0  0  0  0  0
  -19.7730  -28.7910  -10.4910 C   0  0  2  0  0  0  0  0  0  0  0  0
  -21.0890  -27.9380  -10.4970 C   0  0  1  0  0  0  0  0  0  0  0  0
  -20.8090  -26.6080  -11.2260 C   0  0  2  0  0  0  0  0  0  0  0  0
  -19.8780  -25.8150  -10.4690 O   0  0  0  0  0  0  0  0  0  0  0  0
  -18.7470  -26.3950   -8.4330 C   0  0  0  0  0  0  0  0  0  0  0  0
  -16.6850  -26.4590   -6.8710 C   0  0  0  0  0  0  0  0  0  0  0  0
  -15.3480  -26.9300   -7.0610 C   0  0  0  0  0  0  0  0  0  0  0  0
  -14.6750  -27.6130   -6.0310 C   0  0  0  0  0  0  0  0  0  0  0  0
  -15.2890  -27.8330   -4.8070 C   0  0  0  0  0  0  0  0  0  0  0  0
  -14.5620  -28.5300   -3.6970 C   0  0  0  0  0  0  0  0  0  0  0  0
  -16.5700  -27.3230   -4.5920 C   0  0  0  0  0  0  0  0  0  0  0  0
  -17.2510  -26.6240   -5.6060 C   0  0  0  0  0  0  0  0  0  0  0  0
  -19.9510  -29.7310   -9.4440 O   0  0  0  0  0  0  0  0  0  0  0  0
  -19.0970  -29.9250   -9.0140 H   0  0  0  0  0  0  0  0  0  0  0  0
  -17.9920  -27.8980  -11.8320 O   0  0  0  0  0  0  0  0  0  0  0  0
  -17.4820  -27.0470  -11.9250 H   0  0  0  0  0  0  0  0  0  0  0  0
  -22.1560  -28.6760  -11.1300 O   0  0  0  0  0  0  0  0  0  0  0  0
  -22.0070  -29.6390  -10.8440 H   0  0  0  0  0  0  0  0  0  0  0  0
  -22.0270  -25.7250  -11.6060 C   0  0  0  0  0  0  0  0  0  0  0  0
  -22.6540  -26.0870  -12.8150 O   0  0  0  0  0  0  0  0  0  0  0  0
  -22.2620  -26.9970  -13.0740 H   0  0  0  0  0  0  0  0  0  0  0  0
  1 12  1  1  0  0  0
  2  1  1  0  0  0  0
  3  2  1  0  0  0  0
  4  5  1  0  0  0  0
  4  2  1  0  0  0  0
  5 11  1  1  0  0  0
  6  5  1  6  0  0  0
  7  6  1  0  0  0  0
  7 19  1  1  0  0  0
  8 23  1  6  0  0  0
  8  7  1  0  0  0  0
  9 25  1  1  0  0  0
  9  8  1  0  0  0  0
  9 10  1  0  0  0  0
 10  5  1  0  0  0  0
 11  1  1  0  0  0  0
 12 18  1  0  0  0  0
 13 12  2  0  0  0  0
 13 14  1  0  0  0  0
 14 15  2  0  0  0  0
 15 17  1  0  0  0  0
 15 16  1  0  0  0  0
 18 17  2  0  0  0  0
 19 20  1  0  0  0  0
 21  6  1  0  0  0  0
 22 21  1  0  0  0  0
 23 24  1  0  0  0  0
 26 25  1  0  0  0  0
 27 26  1  0  0  0  0
M  END
>  <minimizedAffinity>
-8.27725983

$$$$

 OpenBabel12271914533D

 27 29  0  0  1  0  0  0  0  0999 V2000
  -13.9520  -25.2520  -11.1280 C   0  0  1  0  0  0  0  0  0  0  0  0
  -12.6400  -25.6530  -11.6430 N   0  0  0  0  0  0  0  0  0  0  0  0
  -12.4190  -26.6770  -11.4030 H   0  0  0  0  0  0  0  0  0  0  0  0
  -12.8000  -25.6840  -13.0520 O   0  0  0  0  0  0  0  0  0  0  0  0
  -14.1040  -26.1570  -13.3740 C   0  0  2  0  0  0  0  0  0  0  0  0
  -14.0020  -27.7150  -13.4830 C   0  0  1  0  0  0  0  0  0  0  0  0
  -15.2410  -28.3590  -14.1890 C   0  0  2  0  0  0  0  0  0  0  0  0
  -16.0400  -27.3450  -15.0800 C   0  0  1  0  0  0  0  0  0  0  0  0
  -15.0550  -26.2910  -15.6280 C   0  0  2  0  0  0  0  0  0  0  0  0
  -14.5420  -25.4870  -14.5520 O   0  0  0  0  0  0  0  0  0  0  0  0
  -14.9570  -25.7160  -12.1980 C   0  0  0  0  0  0  0  0  0  0  0  0
  -14.2400  -25.7060   -9.7130 C   0  0  0  0  0  0  0  0  0  0  0  0
  -13.6960  -26.9550   -9.2790 C   0  0  0  0  0  0  0  0  0  0  0  0
  -13.9860  -27.4590   -7.9980 C   0  0  0  0  0  0  0  0  0  0  0  0
  -14.7960  -26.7490   -7.1240 C   0  0  0  0  0  0  0  0  0  0  0  0
  -15.0790  -27.2670   -5.7460 C   0  0  0  0  0  0  0  0  0  0  0  0
  -15.2810  -25.5000   -7.5160 C   0  0  0  0  0  0  0  0  0  0  0  0
  -14.9880  -24.9760   -8.7880 C   0  0  0  0  0  0  0  0  0  0  0  0
  -16.2210  -28.9760  -13.3690 O   0  0  0  0  0  0  0  0  0  0  0  0
  -15.8460  -29.1860  -12.4940 H   0  0  0  0  0  0  0  0  0  0  0  0
  -12.8560  -28.1010  -14.2670 O   0  0  0  0  0  0  0  0  0  0  0  0
  -12.1770  -27.3860  -14.1230 H   0  0  0  0  0  0  0  0  0  0  0  0
  -16.7160  -28.0450  -16.1460 O   0  0  0  0  0  0  0  0  0  0  0  0
  -17.0180  -28.9200  -15.7280 H   0  0  0  0  0  0  0  0  0  0  0  0
  -15.5590  -25.3550  -16.7580 C   0  0  0  0  0  0  0  0  0  0  0  0
  -16.9170  -25.5260  -17.0940 O   0  0  0  0  0  0  0  0  0  0  0  0
  -17.3160  -26.1170  -16.3590 H   0  0  0  0  0  0  0  0  0  0  0  0
  1 12  1  1  0  0  0
  2  3  1  0  0  0  0
  2  1  1  0  0  0  0
  4  2  1  0  0  0  0
  5  4  1  0  0  0  0
  5 11  1  1  0  0  0
  6  5  1  6  0  0  0
  7  6  1  0  0  0  0
  7 19  1  1  0  0  0
  8 23  1  6  0  0  0
  8  7  1  0  0  0  0
  9 25  1  6  0  0  0
  9  8  1  0  0  0  0
  9 10  1  0  0  0  0
 10  5  1  0  0  0  0
 11  1  1  0  0  0  0
 12 13  2  0  0  0  0
 12 18  1  0  0  0  0
 13 14  1  0  0  0  0
 14 15  2  0  0  0  0
 15 16  1  0  0  0  0
 17 15  1  0  0  0  0
 18 17  2  0  0  0  0
 19 20  1  0  0  0  0
 21 22  1  0  0  0  0
 21  6  1  0  0  0  0
 23 24  1  0  0  0  0
 26 25  1  0  0  0  0
 26 27  1  0  0  0  0
M  END
>  <minimizedAffinity>
-8.21046829

$$$$

 OpenBabel12271914533D

 27 29  0  0  1  0  0  0  0  0999 V2000
  -25.7940  -24.5890   -3.1830 C   0  0  1  0  0  0  0  0  0  0  0  0
  -24.9230  -25.6880   -2.7550 N   0  0  0  0  0  0  0  0  0  0  0  0
  -25.4660  -26.6130   -2.6770 H   0  0  0  0  0  0  0  0  0  0  0  0
  -24.0630  -25.9180   -3.8600 O   0  0  0  0  0  0  0  0  0  0  0  0
  -24.7840  -25.7270   -5.0730 C   0  0  2  0  0  0  0  0  0  0  0  0
  -25.4140  -27.1120   -5.4440 C   0  0  1  0  0  0  0  0  0  0  0  0
  -25.9210  -27.1750   -6.9230 C   0  0  2  0  0  0  0  0  0  0  0  0
  -25.2530  -26.1010   -7.8500 C   0  0  1  0  0  0  0  0  0  0  0  0
  -23.8290  -25.8180   -7.3280 C   0  0  2  0  0  0  0  0  0  0  0  0
  -23.8920  -25.1820   -6.0400 O   0  0  0  0  0  0  0  0  0  0  0  0
  -25.8360  -24.6920   -4.7190 C   0  0  0  0  0  0  0  0  0  0  0  0
  -27.1380  -24.5420   -2.4890 C   0  0  0  0  0  0  0  0  0  0  0  0
  -27.9950  -25.6820   -2.5940 C   0  0  0  0  0  0  0  0  0  0  0  0
  -29.2820  -25.6680   -2.0260 C   0  0  0  0  0  0  0  0  0  0  0  0
  -29.7420  -24.5540   -1.3400 C   0  0  0  0  0  0  0  0  0  0  0  0
  -31.0990  -24.5490   -0.7050 C   0  0  0  0  0  0  0  0  0  0  0  0
  -28.8900  -23.4600   -1.1800 C   0  0  0  0  0  0  0  0  0  0  0  0
  -27.5940  -23.4640   -1.7290 C   0  0  0  0  0  0  0  0  0  0  0  0
  -27.3140  -27.0380   -7.1500 O   0  0  0  0  0  0  0  0  0  0  0  0
  -27.8110  -27.2270   -6.3310 H   0  0  0  0  0  0  0  0  0  0  0  0
  -24.4430  -28.1690   -5.3130 O   0  0  0  0  0  0  0  0  0  0  0  0
  -23.8240  -27.8780   -4.5880 H   0  0  0  0  0  0  0  0  0  0  0  0
  -25.2350  -26.5670   -9.2170 O   0  0  0  0  0  0  0  0  0  0  0  0
  -26.1110  -27.0680   -9.3290 H   0  0  0  0  0  0  0  0  0  0  0  0
  -22.8760  -25.0050   -8.2430 C   0  0  0  0  0  0  0  0  0  0  0  0
  -23.4940  -23.9420   -8.9300 O   0  0  0  0  0  0  0  0  0  0  0  0
  -24.4200  -23.8330   -8.5060 H   0  0  0  0  0  0  0  0  0  0  0  0
  1  2  1  0  0  0  0
  1 12  1  1  0  0  0
  2  3  1  0  0  0  0
  4  2  1  0  0  0  0
  5 11  1  1  0  0  0
  5  4  1  0  0  0  0
  6 21  1  0  0  0  0
  6  5  1  6  0  0  0
  7 19  1  1  0  0  0
  7  6  1  0  0  0  0
  8 23  1  6  0  0  0
  8  9  1  0  0  0  0
  8  7  1  0  0  0  0
  9 25  1  6  0  0  0
  9 10  1  0  0  0  0
 10  5  1  0  0  0  0
 11  1  1  0  0  0  0
 12 18  1  0  0  0  0
 13 12  2  0  0  0  0
 13 14  1  0  0  0  0
 14 15  2  0  0  0  0
 15 17  1  0  0  0  0
 15 16  1  0  0  0  0
 18 17  2  0  0  0  0
 19 20  1  0  0  0  0
 21 22  1  0  0  0  0
 24 23  1  0  0  0  0
 26 27  1  0  0  0  0
 26 25  1  0  0  0  0
M  END
>  <minimizedAffinity>
-8.00323391

$$$$

 OpenBabel12271914533D

 27 29  0  0  1  0  0  0  0  0999 V2000
  -27.2880  -25.4490   -1.6200 C   0  0  1  0  0  0  0  0  0  0  0  0
  -28.4940  -25.7610   -2.3920 N   0  0  0  0  0  0  0  0  0  0  0  0
  -28.7320  -24.9750   -3.0860 H   0  0  0  0  0  0  0  0  0  0  0  0
  -28.1110  -26.8300   -3.2420 O   0  0  0  0  0  0  0  0  0  0  0  0
  -26.7640  -26.6440   -3.6650 C   0  0  2  0  0  0  0  0  0  0  0  0
  -26.8200  -25.7930   -4.9790 C   0  0  1  0  0  0  0  0  0  0  0  0
  -25.4730  -25.8130   -5.7750 C   0  0  2  0  0  0  0  0  0  0  0  0
  -24.5610  -27.0370   -5.4150 C   0  0  1  0  0  0  0  0  0  0  0  0
  -25.4640  -28.2220   -5.0160 C   0  0  2  0  0  0  0  0  0  0  0  0
  -26.1570  -27.9260   -3.7900 O   0  0  0  0  0  0  0  0  0  0  0  0
  -26.1170  -25.8910   -2.5180 C   0  0  0  0  0  0  0  0  0  0  0  0
  -27.2210  -24.0280   -1.1020 C   0  0  0  0  0  0  0  0  0  0  0  0
  -25.9370  -23.4100   -0.9840 C   0  0  0  0  0  0  0  0  0  0  0  0
  -25.8090  -22.1170   -0.4460 C   0  0  0  0  0  0  0  0  0  0  0  0
  -26.9270  -21.4080   -0.0300 C   0  0  0  0  0  0  0  0  0  0  0  0
  -26.7970  -20.0170    0.5120 C   0  0  0  0  0  0  0  0  0  0  0  0
  -28.1890  -21.9790   -0.1980 C   0  0  0  0  0  0  0  0  0  0  0  0
  -28.3360  -23.2660   -0.7480 C   0  0  0  0  0  0  0  0  0  0  0  0
  -24.6250  -24.6810   -5.6650 O   0  0  0  0  0  0  0  0  0  0  0  0
  -25.1310  -23.9090   -5.3500 H   0  0  0  0  0  0  0  0  0  0  0  0
  -27.8200  -26.3070   -5.8810 O   0  0  0  0  0  0  0  0  0  0  0  0
  -28.5250  -26.7070   -5.3020 H   0  0  0  0  0  0  0  0  0  0  0  0
  -23.7110  -27.3690   -6.5340 O   0  0  0  0  0  0  0  0  0  0  0  0
  -23.4640  -26.4740   -6.9440 H   0  0  0  0  0  0  0  0  0  0  0  0
  -24.8030  -29.6210   -4.8930 C   0  0  0  0  0  0  0  0  0  0  0  0
  -24.6190  -30.2880   -6.1200 O   0  0  0  0  0  0  0  0  0  0  0  0
  -24.7980  -29.5900   -6.8490 H   0  0  0  0  0  0  0  0  0  0  0  0
  1 12  1  6  0  0  0
  2  1  1  0  0  0  0
  3  2  1  0  0  0  0
  4  2  1  0  0  0  0
  5  4  1  0  0  0  0
  5 11  1  1  0  0  0
  6  5  1  1  0  0  0
  7 19  1  1  0  0  0
  7  8  1  0  0  0  0
  7  6  1  0  0  0  0
  8 23  1  6  0  0  0
  8  9  1  0  0  0  0
  9 25  1  1  0  0  0
  9 10  1  0  0  0  0
 10  5  1  0  0  0  0
 11  1  1  0  0  0  0
 12 13  2  0  0  0  0
 12 18  1  0  0  0  0
 13 14  1  0  0  0  0
 14 15  2  0  0  0  0
 15 16  1  0  0  0  0
 17 15  1  0  0  0  0
 18 17  2  0  0  0  0
 19 20  1  0  0  0  0
 21 22  1  0  0  0  0
 21  6  1  0  0  0  0
 24 23  1  0  0  0  0
 26 25  1  0  0  0  0
 27 26  1  0  0  0  0
M  END
>  <minimizedAffinity>
-7.84285116

$$$$

 OpenBabel12271914533D

 27 29  0  0  1  0  0  0  0  0999 V2000
  -16.7090  -25.7270   -8.8900 C   0  0  1  0  0  0  0  0  0  0  0  0
  -15.6070  -25.4050   -9.8020 N   0  0  0  0  0  0  0  0  0  0  0  0
  -14.8820  -26.1980   -9.8390 H   0  0  0  0  0  0  0  0  0  0  0  0
  -16.1870  -25.4430  -11.0960 O   0  0  0  0  0  0  0  0  0  0  0  0
  -17.1610  -26.4810  -11.1510 C   0  0  2  0  0  0  0  0  0  0  0  0
  -16.4080  -27.7800  -11.5940 C   0  0  1  0  0  0  0  0  0  0  0  0
  -17.3760  -28.9160  -12.0640 C   0  0  2  0  0  0  0  0  0  0  0  0
  -18.7890  -28.3860  -12.4900 C   0  0  1  0  0  0  0  0  0  0  0  0
  -18.6270  -26.9590  -13.0550 C   0  0  2  0  0  0  0  0  0  0  0  0
  -18.2120  -26.0590  -12.0130 O   0  0  0  0  0  0  0  0  0  0  0  0
  -17.6830  -26.5740   -9.7290 C   0  0  0  0  0  0  0  0  0  0  0  0
  -16.2790  -26.3310   -7.5700 C   0  0  0  0  0  0  0  0  0  0  0  0
  -14.9870  -26.9400   -7.4930 C   0  0  0  0  0  0  0  0  0  0  0  0
  -14.5620  -27.5760   -6.3120 C   0  0  0  0  0  0  0  0  0  0  0  0
  -15.3820  -27.6140   -5.1940 C   0  0  0  0  0  0  0  0  0  0  0  0
  -14.9190  -28.2610   -3.9240 C   0  0  0  0  0  0  0  0  0  0  0  0
  -16.6190  -26.9690   -5.2400 C   0  0  0  0  0  0  0  0  0  0  0  0
  -17.0520  -26.3160   -6.4090 C   0  0  0  0  0  0  0  0  0  0  0  0
  -17.6420  -29.9740  -11.1560 O   0  0  0  0  0  0  0  0  0  0  0  0
  -16.9490  -30.0140  -10.4700 H   0  0  0  0  0  0  0  0  0  0  0  0
  -15.5390  -27.5140  -12.7130 O   0  0  0  0  0  0  0  0  0  0  0  0
  -15.2520  -26.5650  -12.6110 H   0  0  0  0  0  0  0  0  0  0  0  0
  -19.3820  -29.2770  -13.4590 O   0  0  0  0  0  0  0  0  0  0  0  0
  -19.1000  -30.2050  -13.1610 H   0  0  0  0  0  0  0  0  0  0  0  0
  -19.8390  -26.3390  -13.8010 C   0  0  0  0  0  0  0  0  0  0  0  0
  -19.8210  -26.5270  -15.1970 O   0  0  0  0  0  0  0  0  0  0  0  0
  -19.0850  -27.2150  -15.3790 H   0  0  0  0  0  0  0  0  0  0  0  0
  1 12  1  1  0  0  0
  2  1  1  0  0  0  0
  3  2  1  0  0  0  0
  4  2  1  0  0  0  0
  5  4  1  0  0  0  0
  5 11  1  1  0  0  0
  6  5  1  6  0  0  0
  7  6  1  0  0  0  0
  7 19  1  1  0  0  0
  8 23  1  6  0  0  0
  8  7  1  0  0  0  0
  9 25  1  1  0  0  0
  9  8  1  0  0  0  0
  9 10  1  0  0  0  0
 10  5  1  0  0  0  0
 11  1  1  0  0  0  0
 12 13  2  0  0  0  0
 12 18  1  0  0  0  0
 13 14  1  0  0  0  0
 14 15  2  0  0  0  0
 15 16  1  0  0  0  0
 17 15  1  0  0  0  0
 18 17  2  0  0  0  0
 19 20  1  0  0  0  0
 21 22  1  0  0  0  0
 21  6  1  0  0  0  0
 23 24  1  0  0  0  0
 26 25  1  0  0  0  0
 27 26  1  0  0  0  0
M  END
>  <minimizedAffinity>
-7.77396774

$$$$

 OpenBabel12271914533D

 27 29  0  0  1  0  0  0  0  0999 V2000
  -21.9600  -25.4630   -8.0780 C   0  0  1  0  0  0  0  0  0  0  0  0
  -23.1330  -25.2410   -8.9280 N   0  0  0  0  0  0  0  0  0  0  0  0
  -23.5180  -26.1660   -9.3180 H   0  0  0  0  0  0  0  0  0  0  0  0
  -24.1530  -24.8250   -8.0340 O   0  0  0  0  0  0  0  0  0  0  0  0
  -24.0230  -25.5270   -6.8020 C   0  0  2  0  0  0  0  0  0  0  0  0
  -24.8640  -26.8400   -6.9430 C   0  0  1  0  0  0  0  0  0  0  0  0
  -25.1360  -27.5390   -5.5690 C   0  0  2  0  0  0  0  0  0  0  0  0
  -24.9910  -26.5710   -4.3440 C   0  0  1  0  0  0  0  0  0  0  0  0
  -25.3760  -25.1470   -4.7960 C   0  0  2  0  0  0  0  0  0  0  0  0
  -24.4190  -24.6540   -5.7490 O   0  0  0  0  0  0  0  0  0  0  0  0
  -22.5350  -25.8050   -6.6910 C   0  0  0  0  0  0  0  0  0  0  0  0
  -20.9540  -26.4480   -8.6360 C   0  0  0  0  0  0  0  0  0  0  0  0
  -21.3620  -27.2950   -9.7130 C   0  0  0  0  0  0  0  0  0  0  0  0
  -20.4920  -28.2740  -10.2260 C   0  0  0  0  0  0  0  0  0  0  0  0
  -19.2160  -28.4300   -9.7060 C   0  0  0  0  0  0  0  0  0  0  0  0
  -18.2740  -29.4500  -10.2730 C   0  0  0  0  0  0  0  0  0  0  0  0
  -18.7880  -27.5680   -8.6950 C   0  0  0  0  0  0  0  0  0  0  0  0
  -19.6410  -26.5740   -8.1820 C   0  0  0  0  0  0  0  0  0  0  0  0
  -24.3460  -28.6700   -5.2370 O   0  0  0  0  0  0  0  0  0  0  0  0
  -23.9420  -29.0480   -6.0400 H   0  0  0  0  0  0  0  0  0  0  0  0
  -26.1610  -26.5600   -7.5070 O   0  0  0  0  0  0  0  0  0  0  0  0
  -26.0320  -25.7710   -8.1020 H   0  0  0  0  0  0  0  0  0  0  0  0
  -25.8200  -27.0250   -3.2520 O   0  0  0  0  0  0  0  0  0  0  0  0
  -25.7630  -28.0380   -3.2900 H   0  0  0  0  0  0  0  0  0  0  0  0
  -25.5840  -24.0750   -3.6930 C   0  0  0  0  0  0  0  0  0  0  0  0
  -24.8080  -24.2730   -2.5340 O   0  0  0  0  0  0  0  0  0  0  0  0
  -24.1250  -24.9980   -2.7740 H   0  0  0  0  0  0  0  0  0  0  0  0
  1 12  1  6  0  0  0
  1 11  1  0  0  0  0
  2  1  1  0  0  0  0
  2  4  1  0  0  0  0
  3  2  1  0  0  0  0
  4  5  1  0  0  0  0
  5 11  1  1  0  0  0
  5 10  1  0  0  0  0
  6  5  1  1  0  0  0
  6  7  1  0  0  0  0
  7 19  1  1  0  0  0
  7  8  1  0  0  0  0
  8 23  1  1  0  0  0
  9  8  1  0  0  0  0
  9 25  1  1  0  0  0
 10  9  1  0  0  0  0
 12 18  2  0  0  0  0
 13 12  1  0  0  0  0
 14 13  2  0  0  0  0
 14 15  1  0  0  0  0
 15 17  2  0  0  0  0
 16 15  1  0  0  0  0
 17 18  1  0  0  0  0
 20 19  1  0  0  0  0
 21  6  1  0  0  0  0
 22 21  1  0  0  0  0
 24 23  1  0  0  0  0
 25 26  1  0  0  0  0
 27 26  1  0  0  0  0
M  END
>  <minimizedAffinity>
-7.52872276

$$$$

 OpenBabel12271914533D

 27 29  0  0  1  0  0  0  0  0999 V2000
  -19.7970  -26.1440   -7.2250 C   0  0  1  0  0  0  0  0  0  0  0  0
  -20.5010  -24.9640   -6.7140 N   0  0  0  0  0  0  0  0  0  0  0  0
  -20.2830  -24.0910   -7.3010 H   0  0  0  0  0  0  0  0  0  0  0  0
  -21.8690  -25.2080   -7.0020 O   0  0  0  0  0  0  0  0  0  0  0  0
  -21.9800  -25.8820   -8.2510 C   0  0  2  0  0  0  0  0  0  0  0  0
  -22.0810  -24.7740   -9.3530 C   0  0  1  0  0  0  0  0  0  0  0  0
  -22.5800  -25.3270  -10.7300 C   0  0  2  0  0  0  0  0  0  0  0  0
  -23.3520  -26.6860  -10.6060 C   0  0  1  0  0  0  0  0  0  0  0  0
  -24.0600  -26.7250   -9.2350 C   0  0  2  0  0  0  0  0  0  0  0  0
  -23.0870  -26.7750   -8.1770 O   0  0  0  0  0  0  0  0  0  0  0  0
  -20.6950  -26.6830   -8.3550 C   0  0  0  0  0  0  0  0  0  0  0  0
  -18.3480  -25.9040   -7.5920 C   0  0  0  0  0  0  0  0  0  0  0  0
  -17.8090  -26.6080   -8.7130 C   0  0  0  0  0  0  0  0  0  0  0  0
  -16.4510  -26.4750   -9.0590 C   0  0  0  0  0  0  0  0  0  0  0  0
  -15.6110  -25.6490   -8.3270 C   0  0  0  0  0  0  0  0  0  0  0  0
  -14.1730  -25.4790   -8.7140 C   0  0  0  0  0  0  0  0  0  0  0  0
  -16.1430  -24.9110   -7.2690 C   0  0  0  0  0  0  0  0  0  0  0  0
  -17.5020  -25.0210   -6.9200 C   0  0  0  0  0  0  0  0  0  0  0  0
  -21.6110  -25.5480  -11.7420 O   0  0  0  0  0  0  0  0  0  0  0  0
  -20.8000  -25.0410  -11.5510 H   0  0  0  0  0  0  0  0  0  0  0  0
  -23.0260  -23.7550   -8.9700 O   0  0  0  0  0  0  0  0  0  0  0  0
  -22.9970  -23.7200   -7.9750 H   0  0  0  0  0  0  0  0  0  0  0  0
  -24.2920  -26.8240  -11.6930 O   0  0  0  0  0  0  0  0  0  0  0  0
  -23.8200  -26.4160  -12.4940 H   0  0  0  0  0  0  0  0  0  0  0  0
  -25.1130  -27.8410   -9.0010 C   0  0  0  0  0  0  0  0  0  0  0  0
  -24.6030  -29.0040   -8.3910 O   0  0  0  0  0  0  0  0  0  0  0  0
  -23.6640  -28.7610   -8.0610 H   0  0  0  0  0  0  0  0  0  0  0  0
  1 12  1  6  0  0  0
  1  2  1  0  0  0  0
  3  2  1  0  0  0  0
  4  2  1  0  0  0  0
  5 11  1  6  0  0  0
  5 10  1  0  0  0  0
  5  4  1  0  0  0  0
  6 21  1  0  0  0  0
  6  5  1  1  0  0  0
  7 19  1  6  0  0  0
  7  8  1  0  0  0  0
  7  6  1  0  0  0  0
  8 23  1  6  0  0  0
  8  9  1  0  0  0  0
  9 25  1  6  0  0  0
  9 10  1  0  0  0  0
 11  1  1  0  0  0  0
 12 18  2  0  0  0  0
 13 12  1  0  0  0  0
 14 13  2  0  0  0  0
 14 15  1  0  0  0  0
 15 17  2  0  0  0  0
 16 15  1  0  0  0  0
 17 18  1  0  0  0  0
 19 20  1  0  0  0  0
 21 22  1  0  0  0  0
 24 23  1  0  0  0  0
 25 26  1  0  0  0  0
 26 27  1  0  0  0  0
M  END
>  <minimizedAffinity>
-7.42699623

$$$$

 OpenBabel12271914533D

 27 29  0  0  1  0  0  0  0  0999 V2000
  -25.6020  -25.6570   -2.6040 C   0  0  1  0  0  0  0  0  0  0  0  0
  -26.6380  -26.6400   -2.2740 N   0  0  0  0  0  0  0  0  0  0  0  0
  -27.6210  -26.2080   -2.3230 H   0  0  0  0  0  0  0  0  0  0  0  0
  -26.6350  -27.5470   -3.3650 O   0  0  0  0  0  0  0  0  0  0  0  0
  -26.3840  -26.8380   -4.5740 C   0  0  2  0  0  0  0  0  0  0  0  0
  -27.7770  -26.3840   -5.1260 C   0  0  1  0  0  0  0  0  0  0  0  0
  -27.7200  -25.9250   -6.6210 C   0  0  2  0  0  0  0  0  0  0  0  0
  -26.4740  -26.4830   -7.3910 C   0  0  1  0  0  0  0  0  0  0  0  0
  -26.0950  -27.8510   -6.7860 C   0  0  2  0  0  0  0  0  0  0  0  0
  -25.6290  -27.6830   -5.4360 O   0  0  0  0  0  0  0  0  0  0  0  0
  -25.5240  -25.6640   -4.1420 C   0  0  0  0  0  0  0  0  0  0  0  0
  -25.7920  -24.3000   -1.9600 C   0  0  0  0  0  0  0  0  0  0  0  0
  -26.2530  -24.2520   -0.6070 C   0  0  0  0  0  0  0  0  0  0  0  0
  -26.5110  -23.0200    0.0200 C   0  0  0  0  0  0  0  0  0  0  0  0
  -26.3120  -21.8250   -0.6560 C   0  0  0  0  0  0  0  0  0  0  0  0
  -26.5530  -20.5090    0.0200 C   0  0  0  0  0  0  0  0  0  0  0  0
  -25.8040  -21.8610   -1.9560 C   0  0  0  0  0  0  0  0  0  0  0  0
  -25.5270  -23.0850   -2.5920 C   0  0  0  0  0  0  0  0  0  0  0  0
  -27.7170  -24.5300   -6.8820 O   0  0  0  0  0  0  0  0  0  0  0  0
  -28.0570  -24.0400   -6.1100 H   0  0  0  0  0  0  0  0  0  0  0  0
  -28.7250  -27.4700   -5.0820 O   0  0  0  0  0  0  0  0  0  0  0  0
  -28.4540  -28.0330   -4.3060 H   0  0  0  0  0  0  0  0  0  0  0  0
  -26.7680  -26.5890   -8.8010 O   0  0  0  0  0  0  0  0  0  0  0  0
  -27.3480  -25.7800   -9.0030 H   0  0  0  0  0  0  0  0  0  0  0  0
  -25.0760  -28.7240   -7.5640 C   0  0  0  0  0  0  0  0  0  0  0  0
  -24.1830  -27.9940   -8.3750 O   0  0  0  0  0  0  0  0  0  0  0  0
  -24.2970  -27.0130   -8.1050 H   0  0  0  0  0  0  0  0  0  0  0  0
  1  2  1  0  0  0  0
  1 12  1  6  0  0  0
  3  2  1  0  0  0  0
  4  2  1  0  0  0  0
  5 11  1  1  0  0  0
  5  4  1  0  0  0  0
  6 21  1  0  0  0  0
  6  5  1  6  0  0  0
  7 19  1  1  0  0  0
  7  6  1  0  0  0  0
  8 23  1  6  0  0  0
  8  9  1  0  0  0  0
  8  7  1  0  0  0  0
  9 25  1  6  0  0  0
  9 10  1  0  0  0  0
 10  5  1  0  0  0  0
 11  1  1  0  0  0  0
 12 13  1  0  0  0  0
 13 14  2  0  0  0  0
 15 16  1  0  0  0  0
 15 14  1  0  0  0  0
 17 15  2  0  0  0  0
 18 12  2  0  0  0  0
 18 17  1  0  0  0  0
 19 20  1  0  0  0  0
 21 22  1  0  0  0  0
 24 23  1  0  0  0  0
 26 27  1  0  0  0  0
 26 25  1  0  0  0  0
M  END
>  <minimizedAffinity>
-7.12105513

$$$$

 OpenBabel12271914533D

 27 29  0  0  1  0  0  0  0  0999 V2000
  -17.6090  -26.0280  -11.4880 C   0  0  1  0  0  0  0  0  0  0  0  0
  -18.3450  -27.2940  -11.5490 N   0  0  0  0  0  0  0  0  0  0  0  0
  -17.6780  -28.1370  -11.5780 H   0  0  0  0  0  0  0  0  0  0  0  0
  -18.9570  -27.4170  -10.2750 O   0  0  0  0  0  0  0  0  0  0  0  0
  -18.0840  -26.9010   -9.2750 C   0  0  2  0  0  0  0  0  0  0  0  0
  -17.1810  -28.0920   -8.8100 C   0  0  1  0  0  0  0  0  0  0  0  0
  -16.4300  -27.8000   -7.4680 C   0  0  2  0  0  0  0  0  0  0  0  0
  -17.1000  -26.6640   -6.6210 C   0  0  1  0  0  0  0  0  0  0  0  0
  -18.6190  -26.6780   -6.8940 C   0  0  2  0  0  0  0  0  0  0  0  0
  -18.8790  -26.3010   -8.2570 O   0  0  0  0  0  0  0  0  0  0  0  0
  -17.2930  -25.8240   -9.9950 C   0  0  0  0  0  0  0  0  0  0  0  0
  -16.4270  -25.9400  -12.4310 C   0  0  0  0  0  0  0  0  0  0  0  0
  -16.6690  -26.0760  -13.8330 C   0  0  0  0  0  0  0  0  0  0  0  0
  -15.6010  -26.0690  -14.7490 C   0  0  0  0  0  0  0  0  0  0  0  0
  -14.2930  -25.9190  -14.3120 C   0  0  0  0  0  0  0  0  0  0  0  0
  -13.1560  -25.8770  -15.2890 C   0  0  0  0  0  0  0  0  0  0  0  0
  -14.0540  -25.7240  -12.9510 C   0  0  0  0  0  0  0  0  0  0  0  0
  -15.1120  -25.7130  -12.0240 C   0  0  0  0  0  0  0  0  0  0  0  0
  -15.0600  -27.4390   -7.5450 O   0  0  0  0  0  0  0  0  0  0  0  0
  -14.6840  -27.7150   -8.4010 H   0  0  0  0  0  0  0  0  0  0  0  0
  -17.9720  -29.2730   -8.5700 O   0  0  0  0  0  0  0  0  0  0  0  0
  -18.7440  -29.2130   -9.1980 H   0  0  0  0  0  0  0  0  0  0  0  0
  -16.8110  -26.8540   -5.2190 O   0  0  0  0  0  0  0  0  0  0  0  0
  -15.8580  -27.2030   -5.1980 H   0  0  0  0  0  0  0  0  0  0  0  0
  -19.5260  -25.8360   -5.9590 C   0  0  0  0  0  0  0  0  0  0  0  0
  -19.7930  -26.4360   -4.7120 O   0  0  0  0  0  0  0  0  0  0  0  0
  -19.1500  -27.2300   -4.6380 H   0  0  0  0  0  0  0  0  0  0  0  0
  1 12  1  6  0  0  0
  1 11  1  0  0  0  0
  2  1  1  0  0  0  0
  2  4  1  0  0  0  0
  3  2  1  0  0  0  0
  4  5  1  0  0  0  0
  5 11  1  6  0  0  0
  5 10  1  0  0  0  0
  6  5  1  1  0  0  0
  6 21  1  0  0  0  0
  6  7  1  0  0  0  0
  7 19  1  6  0  0  0
  7  8  1  0  0  0  0
  8 23  1  1  0  0  0
  9  8  1  0  0  0  0
  9 25  1  1  0  0  0
 10  9  1  0  0  0  0
 12 18  1  0  0  0  0
 13 12  2  0  0  0  0
 14 15  2  0  0  0  0
 14 13  1  0  0  0  0
 15 17  1  0  0  0  0
 16 15  1  0  0  0  0
 17 18  2  0  0  0  0
 20 19  1  0  0  0  0
 22 21  1  0  0  0  0
 23 24  1  0  0  0  0
 25 26  1  0  0  0  0
 26 27  1  0  0  0  0
M  END
>  <minimizedAffinity>
-6.91924191

$$$$
