
 OpenBabel12271914513D

 32 35  0  0  1  0  0  0  0  0999 V2000
  -14.5250  -25.7460  -11.0030 C   0  0  0  0  0  0  0  0  0  0  0  0
  -15.3110  -25.9670   -9.8900 C   0  0  0  0  0  0  0  0  0  0  0  0
  -14.7400  -25.9870   -8.5670 C   0  0  0  0  0  0  0  0  0  0  0  0
  -13.3800  -25.7660   -8.5480 C   0  0  0  0  0  0  0  0  0  0  0  0
  -12.6070  -25.5620   -9.6420 N   0  0  0  0  0  0  0  0  0  0  0  0
  -13.2420  -25.5690  -10.8880 C   0  0  0  0  0  0  0  0  0  0  0  0
  -15.5510  -26.1940   -7.4200 C   0  0  0  0  0  0  0  0  0  0  0  0
  -16.7830  -25.5870   -7.2880 C   0  0  0  0  0  0  0  0  0  0  0  0
  -17.5990  -25.7820   -6.1610 C   0  0  0  0  0  0  0  0  0  0  0  0
  -17.1370  -26.6080   -5.1650 C   0  0  0  0  0  0  0  0  0  0  0  0
  -17.7040  -26.9840   -3.9600 N   0  0  0  0  0  0  0  0  0  0  0  0
  -18.5990  -26.7140   -3.5670 H   0  0  0  0  0  0  0  0  0  0  0  0
  -16.8660  -27.8380   -3.2740 N   0  0  0  0  0  0  0  0  0  0  0  0
  -15.7950  -27.9690   -4.0860 C   0  0  0  0  0  0  0  0  0  0  0  0
  -14.5910  -28.8180   -3.7460 C   0  0  0  0  0  0  0  0  0  0  0  0
  -15.9230  -27.2260   -5.2580 C   0  0  0  0  0  0  0  0  0  0  0  0
  -15.1280  -27.0240   -6.3760 C   0  0  0  0  0  0  0  0  0  0  0  0
  -15.2930  -25.7010  -12.0260 O   0  0  0  0  0  0  0  0  0  0  0  0
  -15.9620  -26.0430  -13.3600 C   0  0  0  0  0  0  0  0  0  0  0  0
  -17.4160  -26.1440  -13.2500 C   0  0  1  0  0  0  0  0  0  0  0  0
  -18.0610  -26.2190  -14.6520 N   0  0  0  0  0  0  0  0  0  0  0  0
  -18.9450  -25.7620  -14.6320 H   0  0  0  0  0  0  0  0  0  0  0  0
  -18.1140  -27.1920  -14.9510 H   0  0  0  0  0  0  0  0  0  0  0  0
  -17.4510  -25.7480  -15.2880 H   0  0  0  0  0  0  0  0  0  0  0  0
  -17.7650  -27.3410  -12.3560 C   0  0  0  0  0  0  0  0  0  0  0  0
  -18.6670  -26.9960  -11.2360 C   0  0  0  0  0  0  0  0  0  0  0  0
  -19.6030  -25.9770  -11.3710 C   0  0  0  0  0  0  0  0  0  0  0  0
  -20.4260  -25.6650  -10.2640 C   0  0  0  0  0  0  0  0  0  0  0  0
  -20.3140  -26.3530   -9.0700 C   0  0  0  0  0  0  0  0  0  0  0  0
  -21.4110  -25.9350   -7.5970 Br  0  0  0  0  0  0  0  0  0  0  0  0
  -19.3760  -27.3740   -8.9480 C   0  0  0  0  0  0  0  0  0  0  0  0
  -18.5670  -27.6830  -10.0260 C   0  0  0  0  0  0  0  0  0  0  0  0
  1  6  2  0  0  0  0
  1  2  1  0  0  0  0
  2  3  2  0  0  0  0
  3  4  1  0  0  0  0
  3  7  1  0  0  0  0
  5  4  2  0  0  0  0
  6  5  1  0  0  0  0
  7  8  2  0  0  0  0
  7 17  1  0  0  0  0
  8  9  1  0  0  0  0
  9 10  2  0  0  0  0
 10 11  1  0  0  0  0
 11 12  1  0  0  0  0
 11 13  1  0  0  0  0
 14 15  1  0  0  0  0
 14 13  2  0  0  0  0
 16 10  1  0  0  0  0
 16 14  1  0  0  0  0
 17 16  2  0  0  0  0
 18  1  1  0  0  0  0
 19 18  1  0  0  0  0
 20 19  1  6  0  0  0
 20 25  1  0  0  0  0
 21 22  1  0  0  0  0
 21 20  1  0  0  0  0
 23 21  1  0  0  0  0
 24 21  1  0  0  0  0
 25 26  1  0  0  0  0
 26 32  1  0  0  0  0
 27 26  2  0  0  0  0
 27 28  1  0  0  0  0
 28 29  2  0  0  0  0
 29 31  1  0  0  0  0
 29 30  1  0  0  0  0
 32 31  2  0  0  0  0
M  END
>  <minimizedAffinity>
-8.90584755

$$$$

 OpenBabel12271914513D

 32 35  0  0  1  0  0  0  0  0999 V2000
  -16.6430  -27.9350  -12.7880 C   0  0  0  0  0  0  0  0  0  0  0  0
  -17.1350  -27.4320  -11.6020 C   0  0  0  0  0  0  0  0  0  0  0  0
  -18.3140  -27.9890  -10.9880 C   0  0  0  0  0  0  0  0  0  0  0  0
  -18.8610  -29.0380  -11.6940 C   0  0  0  0  0  0  0  0  0  0  0  0
  -18.3840  -29.5240  -12.8650 N   0  0  0  0  0  0  0  0  0  0  0  0
  -17.2420  -28.9170  -13.3950 C   0  0  0  0  0  0  0  0  0  0  0  0
  -18.8110  -27.4840   -9.7580 C   0  0  0  0  0  0  0  0  0  0  0  0
  -18.0390  -27.4870   -8.6130 C   0  0  0  0  0  0  0  0  0  0  0  0
  -18.5140  -26.9890   -7.3870 C   0  0  0  0  0  0  0  0  0  0  0  0
  -19.7930  -26.4890   -7.3450 C   0  0  0  0  0  0  0  0  0  0  0  0
  -20.5210  -25.9430   -6.3030 N   0  0  0  0  0  0  0  0  0  0  0  0
  -20.2430  -25.8030   -5.3390 H   0  0  0  0  0  0  0  0  0  0  0  0
  -21.7800  -25.5730   -6.7320 N   0  0  0  0  0  0  0  0  0  0  0  0
  -21.7900  -25.9010   -8.0410 C   0  0  0  0  0  0  0  0  0  0  0  0
  -22.9830  -25.6860   -8.9440 C   0  0  0  0  0  0  0  0  0  0  0  0
  -20.5870  -26.4700   -8.4560 C   0  0  0  0  0  0  0  0  0  0  0  0
  -20.1060  -26.9640   -9.6590 C   0  0  0  0  0  0  0  0  0  0  0  0
  -15.5570  -27.3140  -13.0610 O   0  0  0  0  0  0  0  0  0  0  0  0
  -14.5280  -26.1970  -13.2570 C   0  0  0  0  0  0  0  0  0  0  0  0
  -13.6970  -25.9840  -12.0730 C   0  0  1  0  0  0  0  0  0  0  0  0
  -12.3430  -25.3560  -12.4710 N   0  0  0  0  0  0  0  0  0  0  0  0
  -11.6320  -25.6920  -11.8590 H   0  0  0  0  0  0  0  0  0  0  0  0
  -12.4260  -24.3400  -12.4740 H   0  0  0  0  0  0  0  0  0  0  0  0
  -12.1430  -25.6400  -13.4080 H   0  0  0  0  0  0  0  0  0  0  0  0
  -14.4830  -25.1430  -11.0600 C   0  0  0  0  0  0  0  0  0  0  0  0
  -14.5510  -25.7530   -9.7150 C   0  0  0  0  0  0  0  0  0  0  0  0
  -14.1540  -27.0710   -9.5160 C   0  0  0  0  0  0  0  0  0  0  0  0
  -14.2620  -27.6210   -8.2170 C   0  0  0  0  0  0  0  0  0  0  0  0
  -14.7470  -26.8740   -7.1610 C   0  0  0  0  0  0  0  0  0  0  0  0
  -14.8910  -27.6080   -5.4320 Br  0  0  0  0  0  0  0  0  0  0  0  0
  -15.1380  -25.5550   -7.3700 C   0  0  0  0  0  0  0  0  0  0  0  0
  -15.0370  -25.0110   -8.6380 C   0  0  0  0  0  0  0  0  0  0  0  0
  1  2  2  0  0  0  0
  2  3  1  0  0  0  0
  3  7  1  0  0  0  0
  4  3  2  0  0  0  0
  5  4  1  0  0  0  0
  6  5  2  0  0  0  0
  6  1  1  0  0  0  0
  7 17  2  0  0  0  0
  7  8  1  0  0  0  0
  8  9  2  0  0  0  0
  9 10  1  0  0  0  0
 10 11  1  0  0  0  0
 11 12  1  0  0  0  0
 13 11  1  0  0  0  0
 14 13  2  0  0  0  0
 15 14  1  0  0  0  0
 16 14  1  0  0  0  0
 16 10  2  0  0  0  0
 17 16  1  0  0  0  0
 18  1  1  0  0  0  0
 19 18  1  0  0  0  0
 20 19  1  6  0  0  0
 20 25  1  0  0  0  0
 21 20  1  0  0  0  0
 21 22  1  0  0  0  0
 23 21  1  0  0  0  0
 24 21  1  0  0  0  0
 25 26  1  0  0  0  0
 26 27  2  0  0  0  0
 26 32  1  0  0  0  0
 27 28  1  0  0  0  0
 28 29  2  0  0  0  0
 29 30  1  0  0  0  0
 31 29  1  0  0  0  0
 32 31  2  0  0  0  0
M  END
>  <minimizedAffinity>
-8.87879848

$$$$

 OpenBabel12271914513D

 32 35  0  0  1  0  0  0  0  0999 V2000
  -18.9940  -25.9120   -5.8060 C   0  0  0  0  0  0  0  0  0  0  0  0
  -18.0160  -25.7450   -6.7650 C   0  0  0  0  0  0  0  0  0  0  0  0
  -16.6780  -26.2390   -6.5590 C   0  0  0  0  0  0  0  0  0  0  0  0
  -16.5040  -26.8720   -5.3470 C   0  0  0  0  0  0  0  0  0  0  0  0
  -17.4610  -27.0250   -4.4010 N   0  0  0  0  0  0  0  0  0  0  0  0
  -18.7290  -26.5050   -4.6800 C   0  0  0  0  0  0  0  0  0  0  0  0
  -15.6760  -26.0850   -7.5530 C   0  0  0  0  0  0  0  0  0  0  0  0
  -14.3330  -26.1720   -7.2420 C   0  0  0  0  0  0  0  0  0  0  0  0
  -13.3280  -26.0240   -8.2130 C   0  0  0  0  0  0  0  0  0  0  0  0
  -13.7130  -25.7830   -9.5100 C   0  0  0  0  0  0  0  0  0  0  0  0
  -12.9660  -25.5960  -10.6590 N   0  0  0  0  0  0  0  0  0  0  0  0
  -11.9590  -25.6000  -10.7700 H   0  0  0  0  0  0  0  0  0  0  0  0
  -13.7910  -25.3810  -11.7440 N   0  0  0  0  0  0  0  0  0  0  0  0
  -15.0370  -25.4460  -11.2280 C   0  0  0  0  0  0  0  0  0  0  0  0
  -16.2900  -25.2600  -12.0510 C   0  0  0  0  0  0  0  0  0  0  0  0
  -15.0310  -25.6900   -9.8550 C   0  0  0  0  0  0  0  0  0  0  0  0
  -16.0120  -25.8380   -8.8880 C   0  0  0  0  0  0  0  0  0  0  0  0
  -20.0920  -25.4540   -6.2780 O   0  0  0  0  0  0  0  0  0  0  0  0
  -21.2300  -25.1060   -7.2420 C   0  0  0  0  0  0  0  0  0  0  0  0
  -21.5420  -26.1990   -8.1610 C   0  0  1  0  0  0  0  0  0  0  0  0
  -22.9840  -26.7040   -7.9310 N   0  0  0  0  0  0  0  0  0  0  0  0
  -23.0200  -27.6840   -8.1060 H   0  0  0  0  0  0  0  0  0  0  0  0
  -23.6290  -26.1660   -8.5070 H   0  0  0  0  0  0  0  0  0  0  0  0
  -23.2170  -26.5230   -6.9770 H   0  0  0  0  0  0  0  0  0  0  0  0
  -21.2850  -25.7270   -9.5980 C   0  0  0  0  0  0  0  0  0  0  0  0
  -20.3340  -26.5830  -10.3380 C   0  0  0  0  0  0  0  0  0  0  0  0
  -19.4590  -27.4200   -9.6550 C   0  0  0  0  0  0  0  0  0  0  0  0
  -18.5480  -28.2020  -10.4050 C   0  0  0  0  0  0  0  0  0  0  0  0
  -18.5220  -28.1440  -11.7850 C   0  0  0  0  0  0  0  0  0  0  0  0
  -17.3080  -29.1840  -12.7810 Br  0  0  0  0  0  0  0  0  0  0  0  0
  -19.4050  -27.3050  -12.4590 C   0  0  0  0  0  0  0  0  0  0  0  0
  -20.2970  -26.5380  -11.7310 C   0  0  0  0  0  0  0  0  0  0  0  0
  1  6  2  0  0  0  0
  2  3  2  0  0  0  0
  2  1  1  0  0  0  0
  3  4  1  0  0  0  0
  4  5  2  0  0  0  0
  6  5  1  0  0  0  0
  7  8  1  0  0  0  0
  7  3  1  0  0  0  0
  9  8  2  0  0  0  0
 10  9  1  0  0  0  0
 11 10  1  0  0  0  0
 12 11  1  0  0  0  0
 13 14  2  0  0  0  0
 13 11  1  0  0  0  0
 14 16  1  0  0  0  0
 15 14  1  0  0  0  0
 16 10  2  0  0  0  0
 16 17  1  0  0  0  0
 17  7  2  0  0  0  0
 18  1  1  0  0  0  0
 19 18  1  0  0  0  0
 20 25  1  6  0  0  0
 20 21  1  0  0  0  0
 20 19  1  0  0  0  0
 21 24  1  0  0  0  0
 22 21  1  0  0  0  0
 23 21  1  0  0  0  0
 26 27  1  0  0  0  0
 26 25  1  0  0  0  0
 28 27  2  0  0  0  0
 29 28  1  0  0  0  0
 30 29  1  0  0  0  0
 31 29  2  0  0  0  0
 31 32  1  0  0  0  0
 32 26  2  0  0  0  0
M  END
>  <minimizedAffinity>
-8.67581177

$$$$

 OpenBabel12271914513D

 32 35  0  0  1  0  0  0  0  0999 V2000
  -14.1890  -25.6940  -11.0750 C   0  0  0  0  0  0  0  0  0  0  0  0
  -15.0190  -25.9060   -9.9940 C   0  0  0  0  0  0  0  0  0  0  0  0
  -14.4990  -25.9450   -8.6510 C   0  0  0  0  0  0  0  0  0  0  0  0
  -13.1360  -25.7510   -8.5810 C   0  0  0  0  0  0  0  0  0  0  0  0
  -12.3200  -25.5550   -9.6430 N   0  0  0  0  0  0  0  0  0  0  0  0
  -12.9080  -25.5420  -10.9120 C   0  0  0  0  0  0  0  0  0  0  0  0
  -15.3550  -26.1440   -7.5360 C   0  0  0  0  0  0  0  0  0  0  0  0
  -16.5830  -25.5200   -7.4500 C   0  0  0  0  0  0  0  0  0  0  0  0
  -17.4440  -25.7060   -6.3550 C   0  0  0  0  0  0  0  0  0  0  0  0
  -17.0310  -26.5410   -5.3440 C   0  0  0  0  0  0  0  0  0  0  0  0
  -17.6490  -26.9110   -4.1630 N   0  0  0  0  0  0  0  0  0  0  0  0
  -18.5540  -26.6300   -3.8030 H   0  0  0  0  0  0  0  0  0  0  0  0
  -16.8490  -27.7790   -3.4480 N   0  0  0  0  0  0  0  0  0  0  0  0
  -15.7500  -27.9230   -4.2190 C   0  0  0  0  0  0  0  0  0  0  0  0
  -14.5720  -28.7890   -3.8360 C   0  0  0  0  0  0  0  0  0  0  0  0
  -15.8230  -27.1750   -5.3930 C   0  0  0  0  0  0  0  0  0  0  0  0
  -14.9840  -26.9820   -6.4790 C   0  0  0  0  0  0  0  0  0  0  0  0
  -14.9170  -25.6280  -12.1260 O   0  0  0  0  0  0  0  0  0  0  0  0
  -15.7540  -26.0270  -13.3450 C   0  0  0  0  0  0  0  0  0  0  0  0
  -14.9590  -26.6820  -14.3820 C   0  0  1  0  0  0  0  0  0  0  0  0
  -15.3910  -28.1570  -14.5430 N   0  0  0  0  0  0  0  0  0  0  0  0
  -14.5970  -28.7070  -14.7840 H   0  0  0  0  0  0  0  0  0  0  0  0
  -16.1480  -28.2180  -15.2220 H   0  0  0  0  0  0  0  0  0  0  0  0
  -15.7560  -28.4600  -13.6630 H   0  0  0  0  0  0  0  0  0  0  0  0
  -15.0710  -25.8720  -15.6800 C   0  0  0  0  0  0  0  0  0  0  0  0
  -13.8300  -25.1490  -16.0310 C   0  0  0  0  0  0  0  0  0  0  0  0
  -13.6390  -24.6560  -17.3170 C   0  0  0  0  0  0  0  0  0  0  0  0
  -12.4240  -23.9950  -17.6140 C   0  0  0  0  0  0  0  0  0  0  0  0
  -11.4430  -23.8330  -16.6550 C   0  0  0  0  0  0  0  0  0  0  0  0
   -9.8260  -22.9520  -17.0530 Br  0  0  0  0  0  0  0  0  0  0  0  0
  -11.6460  -24.3260  -15.3690 C   0  0  0  0  0  0  0  0  0  0  0  0
  -12.8310  -24.9760  -15.0730 C   0  0  0  0  0  0  0  0  0  0  0  0
  1  6  2  0  0  0  0
  1  2  1  0  0  0  0
  2  3  2  0  0  0  0
  3  4  1  0  0  0  0
  3  7  1  0  0  0  0
  5  4  2  0  0  0  0
  6  5  1  0  0  0  0
  7  8  2  0  0  0  0
  7 17  1  0  0  0  0
  8  9  1  0  0  0  0
  9 10  2  0  0  0  0
 10 11  1  0  0  0  0
 11 12  1  0  0  0  0
 11 13  1  0  0  0  0
 14 15  1  0  0  0  0
 14 13  2  0  0  0  0
 16 10  1  0  0  0  0
 16 14  1  0  0  0  0
 17 16  2  0  0  0  0
 18  1  1  0  0  0  0
 19 18  1  0  0  0  0
 20 25  1  6  0  0  0
 20 19  1  0  0  0  0
 21 20  1  0  0  0  0
 21 24  1  0  0  0  0
 22 21  1  0  0  0  0
 23 21  1  0  0  0  0
 26 25  1  0  0  0  0
 26 32  2  0  0  0  0
 27 26  1  0  0  0  0
 28 27  2  0  0  0  0
 28 29  1  0  0  0  0
 29 31  2  0  0  0  0
 30 29  1  0  0  0  0
 31 32  1  0  0  0  0
M  END
>  <minimizedAffinity>
-8.54643536

$$$$

 OpenBabel12271914513D

 32 35  0  0  1  0  0  0  0  0999 V2000
  -15.6410  -25.2380   -7.9310 C   0  0  0  0  0  0  0  0  0  0  0  0
  -15.9680  -25.4310   -9.2570 C   0  0  0  0  0  0  0  0  0  0  0  0
  -14.9890  -25.8970  -10.2070 C   0  0  0  0  0  0  0  0  0  0  0  0
  -13.7460  -26.1180   -9.6550 C   0  0  0  0  0  0  0  0  0  0  0  0
  -13.4210  -25.9170   -8.3550 N   0  0  0  0  0  0  0  0  0  0  0  0
  -14.4310  -25.4540   -7.5060 C   0  0  0  0  0  0  0  0  0  0  0  0
  -15.3300  -26.1150  -11.5680 C   0  0  0  0  0  0  0  0  0  0  0  0
  -16.3950  -25.4650  -12.1570 C   0  0  0  0  0  0  0  0  0  0  0  0
  -16.7460  -25.6660  -13.5030 C   0  0  0  0  0  0  0  0  0  0  0  0
  -15.9910  -26.5460  -14.2420 C   0  0  0  0  0  0  0  0  0  0  0  0
  -16.0930  -26.9420  -15.5630 N   0  0  0  0  0  0  0  0  0  0  0  0
  -16.7650  -26.6510  -16.2640 H   0  0  0  0  0  0  0  0  0  0  0  0
  -15.1070  -27.8560  -15.8730 N   0  0  0  0  0  0  0  0  0  0  0  0
  -14.4160  -27.9970  -14.7220 C   0  0  0  0  0  0  0  0  0  0  0  0
  -13.2270  -28.9180  -14.5710 C   0  0  0  0  0  0  0  0  0  0  0  0
  -14.9310  -27.2080  -13.6940 C   0  0  0  0  0  0  0  0  0  0  0  0
  -14.5960  -27.0000  -12.3650 C   0  0  0  0  0  0  0  0  0  0  0  0
  -16.7060  -24.9030   -7.3060 O   0  0  0  0  0  0  0  0  0  0  0  0
  -17.8680  -24.8960   -6.3080 C   0  0  0  0  0  0  0  0  0  0  0  0
  -18.6000  -26.1610   -6.2910 C   0  0  1  0  0  0  0  0  0  0  0  0
  -19.2720  -26.3770   -4.9160 N   0  0  0  0  0  0  0  0  0  0  0  0
  -19.2830  -27.3500   -4.7050 H   0  0  0  0  0  0  0  0  0  0  0  0
  -20.1980  -25.9530   -4.9180 H   0  0  0  0  0  0  0  0  0  0  0  0
  -18.7250  -25.8910   -4.2350 H   0  0  0  0  0  0  0  0  0  0  0  0
  -19.5930  -26.1760   -7.4600 C   0  0  0  0  0  0  0  0  0  0  0  0
  -19.1290  -26.9730   -8.6150 C   0  0  0  0  0  0  0  0  0  0  0  0
  -18.1950  -27.9880   -8.4440 C   0  0  0  0  0  0  0  0  0  0  0  0
  -17.7600  -28.7070   -9.5820 C   0  0  0  0  0  0  0  0  0  0  0  0
  -18.2500  -28.4180  -10.8420 C   0  0  0  0  0  0  0  0  0  0  0  0
  -17.6700  -29.3750  -12.3570 Br  0  0  0  0  0  0  0  0  0  0  0  0
  -19.1880  -27.4020  -11.0020 C   0  0  0  0  0  0  0  0  0  0  0  0
  -19.6150  -26.6950   -9.8930 C   0  0  0  0  0  0  0  0  0  0  0  0
  1  6  1  0  0  0  0
  1 18  1  0  0  0  0
  2  1  2  0  0  0  0
  3  4  2  0  0  0  0
  3  2  1  0  0  0  0
  4  5  1  0  0  0  0
  5  6  2  0  0  0  0
  7  3  1  0  0  0  0
  8  7  1  0  0  0  0
  9  8  2  0  0  0  0
 10 16  2  0  0  0  0
 10  9  1  0  0  0  0
 11 10  1  0  0  0  0
 12 11  1  0  0  0  0
 13 11  1  0  0  0  0
 13 14  2  0  0  0  0
 14 15  1  0  0  0  0
 14 16  1  0  0  0  0
 16 17  1  0  0  0  0
 17  7  2  0  0  0  0
 18 19  1  0  0  0  0
 19 20  1  0  0  0  0
 20 25  1  6  0  0  0
 20 21  1  0  0  0  0
 21 22  1  0  0  0  0
 21 24  1  0  0  0  0
 23 21  1  0  0  0  0
 26 27  1  0  0  0  0
 26 25  1  0  0  0  0
 28 27  2  0  0  0  0
 29 28  1  0  0  0  0
 30 29  1  0  0  0  0
 31 29  2  0  0  0  0
 31 32  1  0  0  0  0
 32 26  2  0  0  0  0
M  END
>  <minimizedAffinity>
-8.27968979

$$$$

 OpenBabel12271914513D

 32 35  0  0  1  0  0  0  0  0999 V2000
  -23.0130  -25.8030   -7.8280 C   0  0  0  0  0  0  0  0  0  0  0  0
  -21.8230  -26.0120   -7.1630 C   0  0  0  0  0  0  0  0  0  0  0  0
  -20.5700  -26.0520   -7.8730 C   0  0  0  0  0  0  0  0  0  0  0  0
  -20.6980  -25.8610   -9.2320 C   0  0  0  0  0  0  0  0  0  0  0  0
  -21.8680  -25.6680   -9.8860 N   0  0  0  0  0  0  0  0  0  0  0  0
  -23.0380  -25.6540   -9.1200 C   0  0  0  0  0  0  0  0  0  0  0  0
  -19.3420  -26.2490   -7.1880 C   0  0  0  0  0  0  0  0  0  0  0  0
  -19.2400  -26.0640   -5.8240 C   0  0  0  0  0  0  0  0  0  0  0  0
  -18.0340  -26.2560   -5.1290 C   0  0  0  0  0  0  0  0  0  0  0  0
  -16.9280  -26.6380   -5.8490 C   0  0  0  0  0  0  0  0  0  0  0  0
  -15.6290  -26.8970   -5.4490 N   0  0  0  0  0  0  0  0  0  0  0  0
  -15.2290  -26.8520   -4.5190 H   0  0  0  0  0  0  0  0  0  0  0  0
  -14.8490  -27.2520   -6.5320 N   0  0  0  0  0  0  0  0  0  0  0  0
  -15.7010  -27.2050   -7.5780 C   0  0  0  0  0  0  0  0  0  0  0  0
  -15.2900  -27.5140   -9.0000 C   0  0  0  0  0  0  0  0  0  0  0  0
  -16.9880  -26.8290   -7.1990 C   0  0  0  0  0  0  0  0  0  0  0  0
  -18.1850  -26.6370   -7.8730 C   0  0  0  0  0  0  0  0  0  0  0  0
  -23.9470  -25.7360   -6.9550 O   0  0  0  0  0  0  0  0  0  0  0  0
  -24.7720  -25.9630   -5.6850 C   0  0  0  0  0  0  0  0  0  0  0  0
  -25.3970  -24.7360   -5.1950 C   0  0  1  0  0  0  0  0  0  0  0  0
  -26.1410  -24.0130   -6.3410 N   0  0  0  0  0  0  0  0  0  0  0  0
  -26.0860  -23.0290   -6.1990 H   0  0  0  0  0  0  0  0  0  0  0  0
  -27.0970  -24.3610   -6.3990 H   0  0  0  0  0  0  0  0  0  0  0  0
  -25.6840  -24.2570   -7.1950 H   0  0  0  0  0  0  0  0  0  0  0  0
  -26.3030  -25.0810   -4.0060 C   0  0  0  0  0  0  0  0  0  0  0  0
  -26.4280  -23.9830   -3.0230 C   0  0  0  0  0  0  0  0  0  0  0  0
  -25.4690  -22.9790   -2.9600 C   0  0  0  0  0  0  0  0  0  0  0  0
  -25.6170  -21.9640   -1.9860 C   0  0  0  0  0  0  0  0  0  0  0  0
  -26.6890  -21.9590   -1.1130 C   0  0  0  0  0  0  0  0  0  0  0  0
  -26.8830  -20.6060    0.1840 Br  0  0  0  0  0  0  0  0  0  0  0  0
  -27.6450  -22.9660   -1.1880 C   0  0  0  0  0  0  0  0  0  0  0  0
  -27.5060  -23.9630   -2.1380 C   0  0  0  0  0  0  0  0  0  0  0  0
  1  2  1  0  0  0  0
  1 18  1  0  0  0  0
  3  7  1  0  0  0  0
  3  2  2  0  0  0  0
  4  3  1  0  0  0  0
  5  4  2  0  0  0  0
  5  6  1  0  0  0  0
  6  1  2  0  0  0  0
  7  8  2  0  0  0  0
  8  9  1  0  0  0  0
 10 11  1  0  0  0  0
 10  9  2  0  0  0  0
 11 12  1  0  0  0  0
 13 11  1  0  0  0  0
 14 16  1  0  0  0  0
 14 13  2  0  0  0  0
 15 14  1  0  0  0  0
 16 10  1  0  0  0  0
 17 16  2  0  0  0  0
 17  7  1  0  0  0  0
 18 19  1  0  0  0  0
 20 19  1  6  0  0  0
 20 25  1  0  0  0  0
 21 22  1  0  0  0  0
 21 20  1  0  0  0  0
 23 21  1  0  0  0  0
 24 21  1  0  0  0  0
 25 26  1  0  0  0  0
 26 27  2  0  0  0  0
 26 32  1  0  0  0  0
 27 28  1  0  0  0  0
 28 29  2  0  0  0  0
 29 30  1  0  0  0  0
 31 29  1  0  0  0  0
 32 31  2  0  0  0  0
M  END
>  <minimizedAffinity>
-8.10926437

$$$$

 OpenBabel12271914513D

 32 35  0  0  1  0  0  0  0  0999 V2000
  -20.1400  -26.1020   -7.8850 C   0  0  0  0  0  0  0  0  0  0  0  0
  -18.7950  -26.1430   -8.1850 C   0  0  0  0  0  0  0  0  0  0  0  0
  -17.7960  -26.0340   -7.1520 C   0  0  0  0  0  0  0  0  0  0  0  0
  -18.3240  -25.8930   -5.8870 C   0  0  0  0  0  0  0  0  0  0  0  0
  -19.6450  -25.8390   -5.5930 N   0  0  0  0  0  0  0  0  0  0  0  0
  -20.5450  -25.9430   -6.6590 C   0  0  0  0  0  0  0  0  0  0  0  0
  -16.4110  -26.0960   -7.4580 C   0  0  0  0  0  0  0  0  0  0  0  0
  -15.4810  -26.4860   -6.5150 C   0  0  0  0  0  0  0  0  0  0  0  0
  -14.1070  -26.5550   -6.8000 C   0  0  0  0  0  0  0  0  0  0  0  0
  -13.6930  -26.2180   -8.0670 C   0  0  0  0  0  0  0  0  0  0  0  0
  -12.4310  -26.1890   -8.6320 N   0  0  0  0  0  0  0  0  0  0  0  0
  -11.5390  -26.4180   -8.2080 H   0  0  0  0  0  0  0  0  0  0  0  0
  -12.4970  -25.7810   -9.9480 N   0  0  0  0  0  0  0  0  0  0  0  0
  -13.8140  -25.5720  -10.1600 C   0  0  0  0  0  0  0  0  0  0  0  0
  -14.3800  -25.0990  -11.4800 C   0  0  0  0  0  0  0  0  0  0  0  0
  -14.5820  -25.8270   -9.0260 C   0  0  0  0  0  0  0  0  0  0  0  0
  -15.9350  -25.7630   -8.7310 C   0  0  0  0  0  0  0  0  0  0  0  0
  -20.7940  -26.3000   -8.9670 O   0  0  0  0  0  0  0  0  0  0  0  0
  -21.6500  -26.0650  -10.2150 C   0  0  0  0  0  0  0  0  0  0  0  0
  -20.9450  -26.3970  -11.4510 C   0  0  1  0  0  0  0  0  0  0  0  0
  -21.9060  -26.3250  -12.6580 N   0  0  0  0  0  0  0  0  0  0  0  0
  -21.6450  -27.0140  -13.3290 H   0  0  0  0  0  0  0  0  0  0  0  0
  -21.9130  -25.3770  -13.0320 H   0  0  0  0  0  0  0  0  0  0  0  0
  -22.8270  -26.5160  -12.3200 H   0  0  0  0  0  0  0  0  0  0  0  0
  -19.7250  -25.4770  -11.5900 C   0  0  0  0  0  0  0  0  0  0  0  0
  -18.5610  -26.1340  -12.2210 C   0  0  0  0  0  0  0  0  0  0  0  0
  -18.1140  -25.7300  -13.4740 C   0  0  0  0  0  0  0  0  0  0  0  0
  -17.0130  -26.4060  -14.0500 C   0  0  0  0  0  0  0  0  0  0  0  0
  -16.3850  -27.4450  -13.3900 C   0  0  0  0  0  0  0  0  0  0  0  0
  -14.9190  -28.3440  -14.1590 Br  0  0  0  0  0  0  0  0  0  0  0  0
  -16.8380  -27.8390  -12.1340 C   0  0  0  0  0  0  0  0  0  0  0  0
  -17.9150  -27.1830  -11.5670 C   0  0  0  0  0  0  0  0  0  0  0  0
  1  6  1  0  0  0  0
  2  1  2  0  0  0  0
  2  3  1  0  0  0  0
  3  4  2  0  0  0  0
  4  5  1  0  0  0  0
  6  5  2  0  0  0  0
  7  3  1  0  0  0  0
  7  8  2  0  0  0  0
  9  8  1  0  0  0  0
 10  9  2  0  0  0  0
 11 12  1  0  0  0  0
 11 10  1  0  0  0  0
 13 11  1  0  0  0  0
 14 13  2  0  0  0  0
 14 16  1  0  0  0  0
 15 14  1  0  0  0  0
 16 17  2  0  0  0  0
 16 10  1  0  0  0  0
 17  7  1  0  0  0  0
 18  1  1  0  0  0  0
 19 18  1  0  0  0  0
 20 25  1  6  0  0  0
 20 19  1  0  0  0  0
 21 24  1  0  0  0  0
 21 20  1  0  0  0  0
 22 21  1  0  0  0  0
 23 21  1  0  0  0  0
 26 25  1  0  0  0  0
 26 32  2  0  0  0  0
 27 26  1  0  0  0  0
 28 27  2  0  0  0  0
 28 29  1  0  0  0  0
 29 31  2  0  0  0  0
 30 29  1  0  0  0  0
 31 32  1  0  0  0  0
M  END
>  <minimizedAffinity>
-8.03602409

$$$$

 OpenBabel12271914513D

 32 35  0  0  1  0  0  0  0  0999 V2000
  -14.3780  -25.7420  -11.1490 C   0  0  0  0  0  0  0  0  0  0  0  0
  -15.0630  -26.0430   -9.9900 C   0  0  0  0  0  0  0  0  0  0  0  0
  -14.3870  -26.1140   -8.7200 C   0  0  0  0  0  0  0  0  0  0  0  0
  -13.0360  -25.8540   -8.7990 C   0  0  0  0  0  0  0  0  0  0  0  0
  -12.3600  -25.5710   -9.9380 N   0  0  0  0  0  0  0  0  0  0  0  0
  -13.0940  -25.5330  -11.1280 C   0  0  0  0  0  0  0  0  0  0  0  0
  -15.0950  -26.4050   -7.5240 C   0  0  0  0  0  0  0  0  0  0  0  0
  -14.4920  -27.0600   -6.4700 C   0  0  0  0  0  0  0  0  0  0  0  0
  -15.1760  -27.3540   -5.2790 C   0  0  0  0  0  0  0  0  0  0  0  0
  -16.4920  -26.9690   -5.1790 C   0  0  0  0  0  0  0  0  0  0  0  0
  -17.4060  -27.1190   -4.1510 N   0  0  0  0  0  0  0  0  0  0  0  0
  -17.2780  -27.5550   -3.2450 H   0  0  0  0  0  0  0  0  0  0  0  0
  -18.6240  -26.5720   -4.5010 N   0  0  0  0  0  0  0  0  0  0  0  0
  -18.4220  -26.0930   -5.7470 C   0  0  0  0  0  0  0  0  0  0  0  0
  -19.4950  -25.4010   -6.5570 C   0  0  0  0  0  0  0  0  0  0  0  0
  -17.1230  -26.3200   -6.2000 C   0  0  0  0  0  0  0  0  0  0  0  0
  -16.4360  -26.0360   -7.3700 C   0  0  0  0  0  0  0  0  0  0  0  0
  -15.2270  -25.6680  -12.1040 O   0  0  0  0  0  0  0  0  0  0  0  0
  -15.9550  -25.9170  -13.4280 C   0  0  0  0  0  0  0  0  0  0  0  0
  -17.3770  -26.1970  -13.2430 C   0  0  1  0  0  0  0  0  0  0  0  0
  -17.6070  -27.7110  -13.0330 N   0  0  0  0  0  0  0  0  0  0  0  0
  -18.4810  -27.9690  -13.4330 H   0  0  0  0  0  0  0  0  0  0  0  0
  -17.5340  -27.9320  -12.0410 H   0  0  0  0  0  0  0  0  0  0  0  0
  -16.8660  -28.1940  -13.4990 H   0  0  0  0  0  0  0  0  0  0  0  0
  -17.9070  -25.3370  -12.0890 C   0  0  0  0  0  0  0  0  0  0  0  0
  -19.1680  -25.8440  -11.5070 C   0  0  0  0  0  0  0  0  0  0  0  0
  -19.1680  -26.4910  -10.2770 C   0  0  0  0  0  0  0  0  0  0  0  0
  -20.3950  -26.9840   -9.7720 C   0  0  0  0  0  0  0  0  0  0  0  0
  -21.5740  -26.8280  -10.4770 C   0  0  0  0  0  0  0  0  0  0  0  0
  -23.2060  -27.4860   -9.8040 Br  0  0  0  0  0  0  0  0  0  0  0  0
  -21.5630  -26.1760  -11.7060 C   0  0  0  0  0  0  0  0  0  0  0  0
  -20.3660  -25.6930  -12.2060 C   0  0  0  0  0  0  0  0  0  0  0  0
  1  6  2  0  0  0  0
  1  2  1  0  0  0  0
  2  3  2  0  0  0  0
  3  7  1  0  0  0  0
  4  3  1  0  0  0  0
  5  4  2  0  0  0  0
  6  5  1  0  0  0  0
  7 17  2  0  0  0  0
  7  8  1  0  0  0  0
  8  9  2  0  0  0  0
  9 10  1  0  0  0  0
 10 11  1  0  0  0  0
 11 12  1  0  0  0  0
 13 11  1  0  0  0  0
 14 13  2  0  0  0  0
 15 14  1  0  0  0  0
 16 14  1  0  0  0  0
 16 10  2  0  0  0  0
 17 16  1  0  0  0  0
 18  1  1  0  0  0  0
 19 18  1  0  0  0  0
 20 19  1  1  0  0  0
 20 21  1  0  0  0  0
 20 25  1  0  0  0  0
 21 23  1  0  0  0  0
 22 21  1  0  0  0  0
 24 21  1  0  0  0  0
 25 26  1  0  0  0  0
 26 27  2  0  0  0  0
 27 28  1  0  0  0  0
 29 30  1  0  0  0  0
 29 28  2  0  0  0  0
 31 29  1  0  0  0  0
 32 31  2  0  0  0  0
 32 26  1  0  0  0  0
M  END
>  <minimizedAffinity>
-7.94655037

$$$$

 OpenBabel12271914513D

 32 35  0  0  1  0  0  0  0  0999 V2000
  -20.5210  -26.4670   -8.4490 C   0  0  0  0  0  0  0  0  0  0  0  0
  -19.1500  -26.4850   -8.6010 C   0  0  0  0  0  0  0  0  0  0  0  0
  -18.2780  -25.9970   -7.5630 C   0  0  0  0  0  0  0  0  0  0  0  0
  -18.9480  -25.5350   -6.4510 C   0  0  0  0  0  0  0  0  0  0  0  0
  -20.2940  -25.5060   -6.3070 N   0  0  0  0  0  0  0  0  0  0  0  0
  -21.0650  -25.9890   -7.3680 C   0  0  0  0  0  0  0  0  0  0  0  0
  -16.8660  -26.0330   -7.7110 C   0  0  0  0  0  0  0  0  0  0  0  0
  -16.0360  -26.3020   -6.6410 C   0  0  0  0  0  0  0  0  0  0  0  0
  -14.6370  -26.3440   -6.7690 C   0  0  0  0  0  0  0  0  0  0  0  0
  -14.0950  -26.1040   -8.0090 C   0  0  0  0  0  0  0  0  0  0  0  0
  -12.7790  -26.0760   -8.4340 N   0  0  0  0  0  0  0  0  0  0  0  0
  -11.9340  -26.2330   -7.8970 H   0  0  0  0  0  0  0  0  0  0  0  0
  -12.7110  -25.7890   -9.7820 N   0  0  0  0  0  0  0  0  0  0  0  0
  -14.0010  -25.6490  -10.1540 C   0  0  0  0  0  0  0  0  0  0  0  0
  -14.4300  -25.3160  -11.5640 C   0  0  0  0  0  0  0  0  0  0  0  0
  -14.8830  -25.8330   -9.0900 C   0  0  0  0  0  0  0  0  0  0  0  0
  -16.2620  -25.7950   -8.9500 C   0  0  0  0  0  0  0  0  0  0  0  0
  -21.0400  -27.0250   -9.4770 O   0  0  0  0  0  0  0  0  0  0  0  0
  -21.2260  -27.8950  -10.7240 C   0  0  0  0  0  0  0  0  0  0  0  0
  -20.4300  -29.1200  -10.6780 C   0  0  1  0  0  0  0  0  0  0  0  0
  -21.1120  -30.1740   -9.7770 N   0  0  0  0  0  0  0  0  0  0  0  0
  -20.4130  -30.7170   -9.3200 H   0  0  0  0  0  0  0  0  0  0  0  0
  -21.7590  -30.7310  -10.3330 H   0  0  0  0  0  0  0  0  0  0  0  0
  -21.6540  -29.6820   -9.0970 H   0  0  0  0  0  0  0  0  0  0  0  0
  -20.1910  -29.6100  -12.1120 C   0  0  0  0  0  0  0  0  0  0  0  0
  -18.8540  -29.2630  -12.6370 C   0  0  0  0  0  0  0  0  0  0  0  0
  -18.4290  -29.7520  -13.8670 C   0  0  0  0  0  0  0  0  0  0  0  0
  -17.1310  -29.4140  -14.3170 C   0  0  0  0  0  0  0  0  0  0  0  0
  -16.2960  -28.6140  -13.5610 C   0  0  0  0  0  0  0  0  0  0  0  0
  -14.5670  -28.1670  -14.1610 Br  0  0  0  0  0  0  0  0  0  0  0  0
  -16.7320  -28.1270  -12.3330 C   0  0  0  0  0  0  0  0  0  0  0  0
  -18.0000  -28.4550  -11.8860 C   0  0  0  0  0  0  0  0  0  0  0  0
  1  6  1  0  0  0  0
  2  1  2  0  0  0  0
  2  3  1  0  0  0  0
  3  4  2  0  0  0  0
  4  5  1  0  0  0  0
  6  5  2  0  0  0  0
  7  3  1  0  0  0  0
  7  8  2  0  0  0  0
  9  8  1  0  0  0  0
 10  9  2  0  0  0  0
 11 10  1  0  0  0  0
 11 12  1  0  0  0  0
 13 11  1  0  0  0  0
 14 13  2  0  0  0  0
 14 16  1  0  0  0  0
 15 14  1  0  0  0  0
 16 17  2  0  0  0  0
 16 10  1  0  0  0  0
 17  7  1  0  0  0  0
 18  1  1  0  0  0  0
 19 20  1  0  0  0  0
 19 18  1  0  0  0  0
 20 25  1  6  0  0  0
 20 21  1  0  0  0  0
 21 22  1  0  0  0  0
 21 24  1  0  0  0  0
 23 21  1  0  0  0  0
 26 25  1  0  0  0  0
 26 32  2  0  0  0  0
 27 26  1  0  0  0  0
 28 27  2  0  0  0  0
 28 29  1  0  0  0  0
 29 31  2  0  0  0  0
 30 29  1  0  0  0  0
 31 32  1  0  0  0  0
M  END
>  <minimizedAffinity>
-7.8970089

$$$$
