
 OpenBabel12271914533D

 32 35  0  0  1  0  0  0  0  0999 V2000
  -13.6060  -26.4730   -8.9910 C   0  0  1  0  0  0  0  0  0  0  0  0
  -12.1060  -26.4280   -8.8680 N   0  0  0  0  0  0  0  0  0  0  0  0
  -11.8080  -26.3810   -7.8860 H   0  0  0  0  0  0  0  0  0  0  0  0
  -11.7360  -25.5950   -9.3530 H   0  0  0  0  0  0  0  0  0  0  0  0
  -11.6420  -27.2520   -9.2870 H   0  0  0  0  0  0  0  0  0  0  0  0
  -14.2660  -25.4990   -7.9940 C   0  0  0  0  0  0  0  0  0  0  0  0
  -15.0120  -26.1950   -6.9250 C   0  0  0  0  0  0  0  0  0  0  0  0
  -16.3430  -25.8930   -6.4960 C   0  0  0  0  0  0  0  0  0  0  0  0
  -17.3160  -24.9460   -6.9060 C   0  0  0  0  0  0  0  0  0  0  0  0
  -18.5340  -24.9140   -6.2490 C   0  0  0  0  0  0  0  0  0  0  0  0
  -18.8010  -25.7820   -5.1950 C   0  0  0  0  0  0  0  0  0  0  0  0
  -17.8610  -26.7120   -4.7660 C   0  0  0  0  0  0  0  0  0  0  0  0
  -16.6270  -26.7540   -5.4430 C   0  0  0  0  0  0  0  0  0  0  0  0
  -15.5210  -27.5420   -5.2300 N   0  0  0  0  0  0  0  0  0  0  0  0
  -15.4510  -28.2340   -4.4860 H   0  0  0  0  0  0  0  0  0  0  0  0
  -14.5460  -27.2300   -6.1310 C   0  0  0  0  0  0  0  0  0  0  0  0
  -13.9780  -26.0670  -10.4080 C   0  0  0  0  0  0  0  0  0  0  0  0
  -15.2430  -25.3880  -10.3160 O   0  0  0  0  0  0  0  0  0  0  0  0
  -16.3070  -26.1460  -10.7410 C   0  0  0  0  0  0  0  0  0  0  0  0
  -17.6010  -26.0510  -10.2320 C   0  0  0  0  0  0  0  0  0  0  0  0
  -18.6160  -26.8790  -10.6810 C   0  0  0  0  0  0  0  0  0  0  0  0
  -18.2600  -27.8140  -11.6820 C   0  0  0  0  0  0  0  0  0  0  0  0
  -17.0310  -27.9390  -12.2160 N   0  0  0  0  0  0  0  0  0  0  0  0
  -16.0900  -27.0940  -11.7310 C   0  0  0  0  0  0  0  0  0  0  0  0
  -19.9720  -26.8150  -10.1590 C   0  0  0  0  0  0  0  0  0  0  0  0
  -20.3210  -26.3120   -8.9320 C   0  0  0  0  0  0  0  0  0  0  0  0
  -21.6860  -26.2580   -8.4340 C   0  0  0  0  0  0  0  0  0  0  0  0
  -22.7180  -26.7240   -9.2830 C   0  0  0  0  0  0  0  0  0  0  0  0
  -24.0140  -26.6760   -8.8140 C   0  0  0  0  0  0  0  0  0  0  0  0
  -24.3770  -26.2170   -7.6030 N   0  0  0  0  0  0  0  0  0  0  0  0
  -23.3640  -25.7770   -6.8080 C   0  0  0  0  0  0  0  0  0  0  0  0
  -22.0340  -25.7800   -7.1760 C   0  0  0  0  0  0  0  0  0  0  0  0
  1 17  1  6  0  0  0
  1  2  1  0  0  0  0
  1  6  1  0  0  0  0
  2  3  1  0  0  0  0
  4  2  1  0  0  0  0
  5  2  1  0  0  0  0
  6  7  1  0  0  0  0
  7  8  1  0  0  0  0
  7 16  2  0  0  0  0
  8 13  1  0  0  0  0
  9  8  2  0  0  0  0
  9 10  1  0  0  0  0
 10 11  2  0  0  0  0
 11 12  1  0  0  0  0
 13 14  1  0  0  0  0
 13 12  2  0  0  0  0
 14 15  1  0  0  0  0
 16 14  1  0  0  0  0
 17 18  1  0  0  0  0
 19 18  1  0  0  0  0
 19 20  2  0  0  0  0
 21 20  1  0  0  0  0
 21 25  1  0  0  0  0
 22 21  2  0  0  0  0
 23 24  2  0  0  0  0
 23 22  1  0  0  0  0
 24 19  1  0  0  0  0
 25 26  2  0  0  0  0
 26 27  1  0  0  0  0
 27 32  2  0  0  0  0
 28 29  2  0  0  0  0
 28 27  1  0  0  0  0
 29 30  1  0  0  0  0
 30 31  2  0  0  0  0
 32 31  1  0  0  0  0
M  END
>  <minimizedAffinity>
-8.46560097

$$$$

 OpenBabel12271914533D

 32 35  0  0  1  0  0  0  0  0999 V2000
  -25.8530  -25.3810   -4.8610 C   0  0  1  0  0  0  0  0  0  0  0  0
  -27.1320  -26.1100   -5.1780 N   0  0  0  0  0  0  0  0  0  0  0  0
  -27.8550  -25.9300   -4.4710 H   0  0  0  0  0  0  0  0  0  0  0  0
  -26.9610  -27.1280   -5.2060 H   0  0  0  0  0  0  0  0  0  0  0  0
  -27.5300  -25.8450   -6.0950 H   0  0  0  0  0  0  0  0  0  0  0  0
  -25.5410  -25.4540   -3.3520 C   0  0  0  0  0  0  0  0  0  0  0  0
  -26.0140  -24.2640   -2.6140 C   0  0  0  0  0  0  0  0  0  0  0  0
  -27.3070  -24.1000   -2.0240 C   0  0  0  0  0  0  0  0  0  0  0  0
  -28.4550  -24.9270   -1.9290 C   0  0  0  0  0  0  0  0  0  0  0  0
  -29.5770  -24.4400   -1.2830 C   0  0  0  0  0  0  0  0  0  0  0  0
  -29.5920  -23.1560   -0.7460 C   0  0  0  0  0  0  0  0  0  0  0  0
  -28.4840  -22.3200   -0.8350 C   0  0  0  0  0  0  0  0  0  0  0  0
  -27.3380  -22.8210   -1.4810 C   0  0  0  0  0  0  0  0  0  0  0  0
  -26.1240  -22.2250   -1.7310 N   0  0  0  0  0  0  0  0  0  0  0  0
  -25.8980  -21.2670   -1.4710 H   0  0  0  0  0  0  0  0  0  0  0  0
  -25.3080  -23.0920   -2.3950 C   0  0  0  0  0  0  0  0  0  0  0  0
  -24.7250  -26.0430   -5.6370 C   0  0  0  0  0  0  0  0  0  0  0  0
  -23.9130  -24.9760   -6.1590 O   0  0  0  0  0  0  0  0  0  0  0  0
  -23.0370  -25.3800   -7.1370 C   0  0  0  0  0  0  0  0  0  0  0  0
  -21.6880  -25.6610   -6.9250 C   0  0  0  0  0  0  0  0  0  0  0  0
  -20.8530  -26.0230   -7.9700 C   0  0  0  0  0  0  0  0  0  0  0  0
  -21.4520  -26.0920   -9.2500 C   0  0  0  0  0  0  0  0  0  0  0  0
  -22.7480  -25.8420   -9.5080 N   0  0  0  0  0  0  0  0  0  0  0  0
  -23.5050  -25.4980   -8.4380 C   0  0  0  0  0  0  0  0  0  0  0  0
  -19.4390  -26.3070   -7.7840 C   0  0  0  0  0  0  0  0  0  0  0  0
  -18.6010  -25.6220   -6.9420 C   0  0  0  0  0  0  0  0  0  0  0  0
  -17.1900  -25.9270   -6.7730 C   0  0  0  0  0  0  0  0  0  0  0  0
  -16.2690  -25.2910   -7.6380 C   0  0  0  0  0  0  0  0  0  0  0  0
  -14.9290  -25.5770   -7.4810 C   0  0  0  0  0  0  0  0  0  0  0  0
  -14.4250  -26.4210   -6.5630 N   0  0  0  0  0  0  0  0  0  0  0  0
  -15.3340  -27.0180   -5.7450 C   0  0  0  0  0  0  0  0  0  0  0  0
  -16.6960  -26.8040   -5.8140 C   0  0  0  0  0  0  0  0  0  0  0  0
  1 17  1  6  0  0  0
  1  6  1  0  0  0  0
  2  1  1  0  0  0  0
  2  3  1  0  0  0  0
  4  2  1  0  0  0  0
  5  2  1  0  0  0  0
  6  7  1  0  0  0  0
  7 16  2  0  0  0  0
  7  8  1  0  0  0  0
  8  9  2  0  0  0  0
  8 13  1  0  0  0  0
  9 10  1  0  0  0  0
 10 11  2  0  0  0  0
 12 11  1  0  0  0  0
 13 12  2  0  0  0  0
 14 13  1  0  0  0  0
 14 15  1  0  0  0  0
 16 14  1  0  0  0  0
 18 17  1  0  0  0  0
 19 20  1  0  0  0  0
 19 18  1  0  0  0  0
 21 25  1  0  0  0  0
 21 20  2  0  0  0  0
 22 21  1  0  0  0  0
 23 22  2  0  0  0  0
 23 24  1  0  0  0  0
 24 19  2  0  0  0  0
 25 26  2  0  0  0  0
 26 27  1  0  0  0  0
 27 32  2  0  0  0  0
 28 29  2  0  0  0  0
 28 27  1  0  0  0  0
 29 30  1  0  0  0  0
 30 31  2  0  0  0  0
 32 31  1  0  0  0  0
M  END
>  <minimizedAffinity>
-8.28787899

$$$$

 OpenBabel12271914533D

 32 35  0  0  1  0  0  0  0  0999 V2000
  -25.6430  -24.5590   -5.4630 C   0  0  1  0  0  0  0  0  0  0  0  0
  -26.2470  -23.8150   -6.6250 N   0  0  0  0  0  0  0  0  0  0  0  0
  -27.1220  -23.3450   -6.3600 H   0  0  0  0  0  0  0  0  0  0  0  0
  -26.4580  -24.4700   -7.3940 H   0  0  0  0  0  0  0  0  0  0  0  0
  -25.6180  -23.0900   -7.0110 H   0  0  0  0  0  0  0  0  0  0  0  0
  -26.7360  -25.2860   -4.6520 C   0  0  0  0  0  0  0  0  0  0  0  0
  -26.4850  -25.2500   -3.1960 C   0  0  0  0  0  0  0  0  0  0  0  0
  -25.9480  -24.1450   -2.4630 C   0  0  0  0  0  0  0  0  0  0  0  0
  -25.5330  -22.8370   -2.8220 C   0  0  0  0  0  0  0  0  0  0  0  0
  -25.0340  -22.0020   -1.8380 C   0  0  0  0  0  0  0  0  0  0  0  0
  -24.9250  -22.4350   -0.5200 C   0  0  0  0  0  0  0  0  0  0  0  0
  -25.3140  -23.7150   -0.1430 C   0  0  0  0  0  0  0  0  0  0  0  0
  -25.8340  -24.5610   -1.1420 C   0  0  0  0  0  0  0  0  0  0  0  0
  -26.2730  -25.8610   -1.0680 N   0  0  0  0  0  0  0  0  0  0  0  0
  -26.2580  -26.4180   -0.2150 H   0  0  0  0  0  0  0  0  0  0  0  0
  -26.6890  -26.2830   -2.2960 C   0  0  0  0  0  0  0  0  0  0  0  0
  -24.6640  -25.5830   -6.0130 C   0  0  0  0  0  0  0  0  0  0  0  0
  -23.4580  -24.8630   -6.3250 O   0  0  0  0  0  0  0  0  0  0  0  0
  -22.6580  -25.5000   -7.2420 C   0  0  0  0  0  0  0  0  0  0  0  0
  -21.2770  -25.6500   -7.1190 C   0  0  0  0  0  0  0  0  0  0  0  0
  -20.5280  -26.2700   -8.1060 C   0  0  0  0  0  0  0  0  0  0  0  0
  -21.2460  -26.7380   -9.2320 C   0  0  0  0  0  0  0  0  0  0  0  0
  -22.5770  -26.6300   -9.3940 N   0  0  0  0  0  0  0  0  0  0  0  0
  -23.2450  -26.0170   -8.3880 C   0  0  0  0  0  0  0  0  0  0  0  0
  -19.0850  -26.4270   -8.0140 C   0  0  0  0  0  0  0  0  0  0  0  0
  -18.2730  -25.7610   -7.1330 C   0  0  0  0  0  0  0  0  0  0  0  0
  -16.8320  -25.9380   -7.0610 C   0  0  0  0  0  0  0  0  0  0  0  0
  -16.3270  -26.8650   -6.1190 C   0  0  0  0  0  0  0  0  0  0  0  0
  -14.9600  -27.0360   -6.0480 C   0  0  0  0  0  0  0  0  0  0  0  0
  -14.0620  -26.3860   -6.8090 N   0  0  0  0  0  0  0  0  0  0  0  0
  -14.5780  -25.5010   -7.7060 C   0  0  0  0  0  0  0  0  0  0  0  0
  -15.9260  -25.2520   -7.8620 C   0  0  0  0  0  0  0  0  0  0  0  0
  1 17  1  6  0  0  0
  1  6  1  0  0  0  0
  2  3  1  0  0  0  0
  2  1  1  0  0  0  0
  4  2  1  0  0  0  0
  5  2  1  0  0  0  0
  6  7  1  0  0  0  0
  7  8  1  0  0  0  0
  7 16  2  0  0  0  0
  8 13  1  0  0  0  0
  9  8  2  0  0  0  0
  9 10  1  0  0  0  0
 10 11  2  0  0  0  0
 11 12  1  0  0  0  0
 13 14  1  0  0  0  0
 13 12  2  0  0  0  0
 14 15  1  0  0  0  0
 16 14  1  0  0  0  0
 18 17  1  0  0  0  0
 19 20  1  0  0  0  0
 19 18  1  0  0  0  0
 21 25  1  0  0  0  0
 21 20  2  0  0  0  0
 22 21  1  0  0  0  0
 23 22  2  0  0  0  0
 23 24  1  0  0  0  0
 24 19  2  0  0  0  0
 25 26  2  0  0  0  0
 26 27  1  0  0  0  0
 27 28  2  0  0  0  0
 28 29  1  0  0  0  0
 30 29  2  0  0  0  0
 31 30  1  0  0  0  0
 32 31  2  0  0  0  0
 32 27  1  0  0  0  0
M  END
>  <minimizedAffinity>
-8.22951698

$$$$

 OpenBabel12271914533D

 32 35  0  0  1  0  0  0  0  0999 V2000
  -13.9870  -25.6990  -10.1490 C   0  0  1  0  0  0  0  0  0  0  0  0
  -12.7800  -25.3420  -10.9750 N   0  0  0  0  0  0  0  0  0  0  0  0
  -13.0020  -25.3160  -11.9780 H   0  0  0  0  0  0  0  0  0  0  0  0
  -12.0340  -26.0410  -10.8330 H   0  0  0  0  0  0  0  0  0  0  0  0
  -12.3810  -24.4200  -10.7290 H   0  0  0  0  0  0  0  0  0  0  0  0
  -14.7990  -26.8230  -10.8240 C   0  0  0  0  0  0  0  0  0  0  0  0
  -16.2040  -26.4400  -11.0760 C   0  0  0  0  0  0  0  0  0  0  0  0
  -17.3620  -27.1340  -10.6050 C   0  0  0  0  0  0  0  0  0  0  0  0
  -17.5570  -28.2890   -9.8050 C   0  0  0  0  0  0  0  0  0  0  0  0
  -18.8490  -28.7090   -9.5430 C   0  0  0  0  0  0  0  0  0  0  0  0
  -19.9430  -28.0240  -10.0630 C   0  0  0  0  0  0  0  0  0  0  0  0
  -19.7800  -26.8960  -10.8590 C   0  0  0  0  0  0  0  0  0  0  0  0
  -18.4660  -26.4610  -11.1150 C   0  0  0  0  0  0  0  0  0  0  0  0
  -18.0070  -25.4080  -11.8710 N   0  0  0  0  0  0  0  0  0  0  0  0
  -18.6130  -24.7750  -12.3900 H   0  0  0  0  0  0  0  0  0  0  0  0
  -16.6450  -25.3690  -11.8380 C   0  0  0  0  0  0  0  0  0  0  0  0
  -13.5060  -26.1770   -8.7890 C   0  0  0  0  0  0  0  0  0  0  0  0
  -14.0820  -25.2830   -7.8190 O   0  0  0  0  0  0  0  0  0  0  0  0
  -15.2520  -25.7470   -7.2700 C   0  0  0  0  0  0  0  0  0  0  0  0
  -16.5270  -25.3790   -7.6970 C   0  0  0  0  0  0  0  0  0  0  0  0
  -17.6650  -25.8560   -7.0660 C   0  0  0  0  0  0  0  0  0  0  0  0
  -17.4520  -26.7330   -5.9760 C   0  0  0  0  0  0  0  0  0  0  0  0
  -16.2450  -27.1290   -5.5320 N   0  0  0  0  0  0  0  0  0  0  0  0
  -15.1790  -26.6260   -6.1990 C   0  0  0  0  0  0  0  0  0  0  0  0
  -19.0080  -25.4790   -7.4770 C   0  0  0  0  0  0  0  0  0  0  0  0
  -20.1670  -25.9670   -6.9300 C   0  0  0  0  0  0  0  0  0  0  0  0
  -21.4990  -25.5720   -7.3590 C   0  0  0  0  0  0  0  0  0  0  0  0
  -22.5950  -25.9670   -6.5560 C   0  0  0  0  0  0  0  0  0  0  0  0
  -23.8600  -25.5940   -6.9590 C   0  0  0  0  0  0  0  0  0  0  0  0
  -24.1360  -24.8790   -8.0640 N   0  0  0  0  0  0  0  0  0  0  0  0
  -23.0620  -24.5130   -8.8160 C   0  0  0  0  0  0  0  0  0  0  0  0
  -21.7550  -24.8310   -8.5060 C   0  0  0  0  0  0  0  0  0  0  0  0
  1  6  1  6  0  0  0
  1 17  1  0  0  0  0
  2  4  1  0  0  0  0
  2  5  1  0  0  0  0
  2  1  1  0  0  0  0
  3  2  1  0  0  0  0
  7  6  1  0  0  0  0
  7  8  1  0  0  0  0
  8  9  2  0  0  0  0
  9 10  1  0  0  0  0
 11 10  2  0  0  0  0
 12 11  1  0  0  0  0
 13 12  2  0  0  0  0
 13  8  1  0  0  0  0
 14 16  1  0  0  0  0
 14 13  1  0  0  0  0
 15 14  1  0  0  0  0
 16  7  2  0  0  0  0
 17 18  1  0  0  0  0
 18 19  1  0  0  0  0
 19 24  1  0  0  0  0
 20 19  2  0  0  0  0
 20 21  1  0  0  0  0
 21 22  2  0  0  0  0
 22 23  1  0  0  0  0
 24 23  2  0  0  0  0
 25 21  1  0  0  0  0
 25 26  2  0  0  0  0
 27 26  1  0  0  0  0
 27 28  2  0  0  0  0
 29 28  1  0  0  0  0
 30 29  2  0  0  0  0
 31 32  2  0  0  0  0
 31 30  1  0  0  0  0
 32 27  1  0  0  0  0
M  END
>  <minimizedAffinity>
-8.06502533

$$$$

 OpenBabel12271914533D

 32 35  0  0  1  0  0  0  0  0999 V2000
  -19.0610  -25.6930   -6.1960 C   0  0  1  0  0  0  0  0  0  0  0  0
  -19.3600  -26.4100   -4.9060 N   0  0  0  0  0  0  0  0  0  0  0  0
  -19.0900  -25.8490   -4.0890 H   0  0  0  0  0  0  0  0  0  0  0  0
  -18.8400  -27.3000   -4.8670 H   0  0  0  0  0  0  0  0  0  0  0  0
  -20.3630  -26.6420   -4.7960 H   0  0  0  0  0  0  0  0  0  0  0  0
  -17.6930  -24.9830   -6.1230 C   0  0  0  0  0  0  0  0  0  0  0  0
  -16.5580  -25.9120   -6.3070 C   0  0  0  0  0  0  0  0  0  0  0  0
  -15.6700  -25.9410   -7.4280 C   0  0  0  0  0  0  0  0  0  0  0  0
  -15.5590  -25.1700   -8.6130 C   0  0  0  0  0  0  0  0  0  0  0  0
  -14.5640  -25.4830   -9.5220 C   0  0  0  0  0  0  0  0  0  0  0  0
  -13.6930  -26.5430   -9.2910 C   0  0  0  0  0  0  0  0  0  0  0  0
  -13.7860  -27.3220   -8.1430 C   0  0  0  0  0  0  0  0  0  0  0  0
  -14.7910  -26.9950   -7.2120 C   0  0  0  0  0  0  0  0  0  0  0  0
  -15.1270  -27.5900   -6.0190 N   0  0  0  0  0  0  0  0  0  0  0  0
  -14.6620  -28.4140   -5.6450 H   0  0  0  0  0  0  0  0  0  0  0  0
  -16.1780  -26.9330   -5.4510 C   0  0  0  0  0  0  0  0  0  0  0  0
  -19.0320  -26.7210   -7.3150 C   0  0  0  0  0  0  0  0  0  0  0  0
  -20.3280  -26.6760   -7.9400 O   0  0  0  0  0  0  0  0  0  0  0  0
  -20.2880  -26.3130   -9.2640 C   0  0  0  0  0  0  0  0  0  0  0  0
  -19.1990  -26.5180  -10.1090 C   0  0  0  0  0  0  0  0  0  0  0  0
  -19.2160  -26.0860  -11.4260 C   0  0  0  0  0  0  0  0  0  0  0  0
  -20.3970  -25.4340  -11.8520 C   0  0  0  0  0  0  0  0  0  0  0  0
  -21.4790  -25.2210  -11.0820 N   0  0  0  0  0  0  0  0  0  0  0  0
  -21.3930  -25.6740   -9.8080 C   0  0  0  0  0  0  0  0  0  0  0  0
  -18.0900  -26.2710  -12.3280 C   0  0  0  0  0  0  0  0  0  0  0  0
  -16.8520  -26.7300  -11.9590 C   0  0  0  0  0  0  0  0  0  0  0  0
  -15.7420  -26.9070  -12.8820 C   0  0  0  0  0  0  0  0  0  0  0  0
  -15.6570  -28.1330  -13.5830 C   0  0  0  0  0  0  0  0  0  0  0  0
  -14.6070  -28.3050  -14.4610 C   0  0  0  0  0  0  0  0  0  0  0  0
  -13.6490  -27.3930  -14.7030 N   0  0  0  0  0  0  0  0  0  0  0  0
  -13.7580  -26.2240  -14.0150 C   0  0  0  0  0  0  0  0  0  0  0  0
  -14.7660  -25.9450  -13.1150 C   0  0  0  0  0  0  0  0  0  0  0  0
  1 17  1  6  0  0  0
  1  6  1  0  0  0  0
  1  2  1  0  0  0  0
  2  4  1  0  0  0  0
  2  5  1  0  0  0  0
  2  3  1  0  0  0  0
  7  6  1  0  0  0  0
  7 16  2  0  0  0  0
  8 13  1  0  0  0  0
  8  7  1  0  0  0  0
  9  8  2  0  0  0  0
 10 11  2  0  0  0  0
 10  9  1  0  0  0  0
 11 12  1  0  0  0  0
 12 13  2  0  0  0  0
 13 14  1  0  0  0  0
 14 15  1  0  0  0  0
 14 16  1  0  0  0  0
 18 17  1  0  0  0  0
 19 18  1  0  0  0  0
 20 19  2  0  0  0  0
 21 20  1  0  0  0  0
 22 21  2  0  0  0  0
 22 23  1  0  0  0  0
 23 24  2  0  0  0  0
 24 19  1  0  0  0  0
 25 26  2  0  0  0  0
 25 21  1  0  0  0  0
 27 26  1  0  0  0  0
 28 27  2  0  0  0  0
 29 28  1  0  0  0  0
 30 29  2  0  0  0  0
 30 31  1  0  0  0  0
 31 32  2  0  0  0  0
 32 27  1  0  0  0  0
M  END
>  <minimizedAffinity>
-7.96882248

$$$$

 OpenBabel12271914533D

 32 35  0  0  1  0  0  0  0  0999 V2000
  -18.3950  -26.3550  -12.7050 C   0  0  1  0  0  0  0  0  0  0  0  0
  -17.6630  -27.0120  -13.8450 N   0  0  0  0  0  0  0  0  0  0  0  0
  -18.0990  -27.9030  -14.1120 H   0  0  0  0  0  0  0  0  0  0  0  0
  -16.6860  -27.2050  -13.5730 H   0  0  0  0  0  0  0  0  0  0  0  0
  -17.6290  -26.4240  -14.6950 H   0  0  0  0  0  0  0  0  0  0  0  0
  -18.8100  -27.3990  -11.6470 C   0  0  0  0  0  0  0  0  0  0  0  0
  -19.9320  -26.9400  -10.8020 C   0  0  0  0  0  0  0  0  0  0  0  0
  -19.8420  -26.5340   -9.4340 C   0  0  0  0  0  0  0  0  0  0  0  0
  -18.7700  -26.4190   -8.5120 C   0  0  0  0  0  0  0  0  0  0  0  0
  -19.0400  -25.9960   -7.2230 C   0  0  0  0  0  0  0  0  0  0  0  0
  -20.3400  -25.7000   -6.8260 C   0  0  0  0  0  0  0  0  0  0  0  0
  -21.4110  -25.8150   -7.7050 C   0  0  0  0  0  0  0  0  0  0  0  0
  -21.1340  -26.2330   -9.0210 C   0  0  0  0  0  0  0  0  0  0  0  0
  -21.9790  -26.4510  -10.0830 N   0  0  0  0  0  0  0  0  0  0  0  0
  -22.9900  -26.3420  -10.0350 H   0  0  0  0  0  0  0  0  0  0  0  0
  -21.2650  -26.8570  -11.1710 C   0  0  0  0  0  0  0  0  0  0  0  0
  -17.4640  -25.3380  -12.0660 C   0  0  0  0  0  0  0  0  0  0  0  0
  -16.1310  -25.7020  -12.4680 O   0  0  0  0  0  0  0  0  0  0  0  0
  -15.2690  -25.8830  -11.4140 C   0  0  0  0  0  0  0  0  0  0  0  0
  -15.6090  -26.4920  -10.2070 C   0  0  0  0  0  0  0  0  0  0  0  0
  -14.6950  -26.6020   -9.1710 C   0  0  0  0  0  0  0  0  0  0  0  0
  -13.4090  -26.0650   -9.4160 C   0  0  0  0  0  0  0  0  0  0  0  0
  -13.0260  -25.4790  -10.5640 N   0  0  0  0  0  0  0  0  0  0  0  0
  -13.9690  -25.4100  -11.5340 C   0  0  0  0  0  0  0  0  0  0  0  0
  -15.0240  -27.2170   -7.8950 C   0  0  0  0  0  0  0  0  0  0  0  0
  -15.2150  -26.5390   -6.7190 C   0  0  0  0  0  0  0  0  0  0  0  0
  -15.5440  -27.1800   -5.4550 C   0  0  0  0  0  0  0  0  0  0  0  0
  -16.7940  -26.8730   -4.8670 C   0  0  0  0  0  0  0  0  0  0  0  0
  -17.1110  -27.4790   -3.6690 C   0  0  0  0  0  0  0  0  0  0  0  0
  -16.3190  -28.3440   -3.0110 N   0  0  0  0  0  0  0  0  0  0  0  0
  -15.1250  -28.6200   -3.6010 C   0  0  0  0  0  0  0  0  0  0  0  0
  -14.7060  -28.0720   -4.7970 C   0  0  0  0  0  0  0  0  0  0  0  0
  1 17  1  1  0  0  0
  1  6  1  0  0  0  0
  2  4  1  0  0  0  0
  2  1  1  0  0  0  0
  3  2  1  0  0  0  0
  5  2  1  0  0  0  0
  6  7  1  0  0  0  0
  7  8  1  0  0  0  0
  8 13  2  0  0  0  0
  8  9  1  0  0  0  0
  9 10  2  0  0  0  0
 10 11  1  0  0  0  0
 12 11  2  0  0  0  0
 13 12  1  0  0  0  0
 14 15  1  0  0  0  0
 14 13  1  0  0  0  0
 16  7  2  0  0  0  0
 16 14  1  0  0  0  0
 18 17  1  0  0  0  0
 18 19  1  0  0  0  0
 19 20  1  0  0  0  0
 20 21  2  0  0  0  0
 21 25  1  0  0  0  0
 22 21  1  0  0  0  0
 23 22  2  0  0  0  0
 24 19  2  0  0  0  0
 24 23  1  0  0  0  0
 25 26  2  0  0  0  0
 26 27  1  0  0  0  0
 27 28  2  0  0  0  0
 27 32  1  0  0  0  0
 28 29  1  0  0  0  0
 29 30  2  0  0  0  0
 31 30  1  0  0  0  0
 32 31  2  0  0  0  0
M  END
>  <minimizedAffinity>
-7.86143446

$$$$

 OpenBabel12271914533D

 32 35  0  0  1  0  0  0  0  0999 V2000
  -26.2810  -25.9470   -4.3320 C   0  0  1  0  0  0  0  0  0  0  0  0
  -25.5290  -27.2250   -4.0690 N   0  0  0  0  0  0  0  0  0  0  0  0
  -25.3510  -27.3610   -3.0660 H   0  0  0  0  0  0  0  0  0  0  0  0
  -24.6180  -27.2060   -4.5540 H   0  0  0  0  0  0  0  0  0  0  0  0
  -26.0320  -28.0650   -4.4050 H   0  0  0  0  0  0  0  0  0  0  0  0
  -25.7420  -24.8040   -3.4470 C   0  0  0  0  0  0  0  0  0  0  0  0
  -26.7710  -24.2480   -2.5430 C   0  0  0  0  0  0  0  0  0  0  0  0
  -26.6390  -23.0700   -1.7430 C   0  0  0  0  0  0  0  0  0  0  0  0
  -25.6070  -22.1140   -1.5660 C   0  0  0  0  0  0  0  0  0  0  0  0
  -25.8070  -21.0720   -0.6780 C   0  0  0  0  0  0  0  0  0  0  0  0
  -26.9920  -20.9650    0.0430 C   0  0  0  0  0  0  0  0  0  0  0  0
  -28.0160  -21.8940   -0.1030 C   0  0  0  0  0  0  0  0  0  0  0  0
  -27.8170  -22.9470   -1.0170 C   0  0  0  0  0  0  0  0  0  0  0  0
  -28.6310  -24.0040   -1.3490 N   0  0  0  0  0  0  0  0  0  0  0  0
  -29.5430  -24.1730   -0.9270 H   0  0  0  0  0  0  0  0  0  0  0  0
  -28.0220  -24.7860   -2.2850 C   0  0  0  0  0  0  0  0  0  0  0  0
  -26.0930  -25.5780   -5.7940 C   0  0  0  0  0  0  0  0  0  0  0  0
  -25.1500  -26.5230   -6.3320 O   0  0  0  0  0  0  0  0  0  0  0  0
  -24.1030  -25.9360   -6.9990 C   0  0  0  0  0  0  0  0  0  0  0  0
  -22.7650  -26.0370   -6.6190 C   0  0  0  0  0  0  0  0  0  0  0  0
  -21.7650  -25.3820   -7.3180 C   0  0  0  0  0  0  0  0  0  0  0  0
  -22.1820  -24.6160   -8.4320 C   0  0  0  0  0  0  0  0  0  0  0  0
  -23.4560  -24.4940   -8.8480 N   0  0  0  0  0  0  0  0  0  0  0  0
  -24.3800  -25.1660   -8.1190 C   0  0  0  0  0  0  0  0  0  0  0  0
  -20.3630  -25.4550   -6.9370 C   0  0  0  0  0  0  0  0  0  0  0  0
  -19.3950  -26.1450   -7.6200 C   0  0  0  0  0  0  0  0  0  0  0  0
  -17.9990  -26.2010   -7.2180 C   0  0  0  0  0  0  0  0  0  0  0  0
  -17.0290  -25.7230   -8.1320 C   0  0  0  0  0  0  0  0  0  0  0  0
  -15.7040  -25.7730   -7.7540 C   0  0  0  0  0  0  0  0  0  0  0  0
  -15.2560  -26.2450   -6.5770 N   0  0  0  0  0  0  0  0  0  0  0  0
  -16.2110  -26.6970   -5.7190 C   0  0  0  0  0  0  0  0  0  0  0  0
  -17.5640  -26.6940   -5.9930 C   0  0  0  0  0  0  0  0  0  0  0  0
  1 17  1  6  0  0  0
  1  2  1  0  0  0  0
  1  6  1  0  0  0  0
  2  3  1  0  0  0  0
  4  2  1  0  0  0  0
  5  2  1  0  0  0  0
  6  7  1  0  0  0  0
  7 16  2  0  0  0  0
  7  8  1  0  0  0  0
  8  9  2  0  0  0  0
  8 13  1  0  0  0  0
  9 10  1  0  0  0  0
 10 11  2  0  0  0  0
 12 11  1  0  0  0  0
 13 12  2  0  0  0  0
 14 13  1  0  0  0  0
 14 15  1  0  0  0  0
 16 14  1  0  0  0  0
 18 17  1  0  0  0  0
 19 20  1  0  0  0  0
 19 18  1  0  0  0  0
 21 25  1  0  0  0  0
 21 20  2  0  0  0  0
 22 21  1  0  0  0  0
 23 22  2  0  0  0  0
 23 24  1  0  0  0  0
 24 19  2  0  0  0  0
 26 27  1  0  0  0  0
 26 25  2  0  0  0  0
 27 32  2  0  0  0  0
 28 29  2  0  0  0  0
 28 27  1  0  0  0  0
 29 30  1  0  0  0  0
 30 31  2  0  0  0  0
 32 31  1  0  0  0  0
M  END
>  <minimizedAffinity>
-7.73683405

$$$$

 OpenBabel12271914533D

 32 35  0  0  1  0  0  0  0  0999 V2000
  -20.2650  -26.1520   -7.4160 C   0  0  1  0  0  0  0  0  0  0  0  0
  -20.4190  -26.1210   -8.9140 N   0  0  0  0  0  0  0  0  0  0  0  0
  -19.5090  -26.0440   -9.3860 H   0  0  0  0  0  0  0  0  0  0  0  0
  -20.9920  -25.3090   -9.1930 H   0  0  0  0  0  0  0  0  0  0  0  0
  -20.8860  -26.9640   -9.2890 H   0  0  0  0  0  0  0  0  0  0  0  0
  -19.1980  -25.1370   -6.9540 C   0  0  0  0  0  0  0  0  0  0  0  0
  -18.0120  -25.7870   -6.3580 C   0  0  0  0  0  0  0  0  0  0  0  0
  -16.6920  -25.7940   -6.9100 C   0  0  0  0  0  0  0  0  0  0  0  0
  -16.1120  -25.2310   -8.0750 C   0  0  0  0  0  0  0  0  0  0  0  0
  -14.7680  -25.4470   -8.3230 C   0  0  0  0  0  0  0  0  0  0  0  0
  -13.9960  -26.2160   -7.4560 C   0  0  0  0  0  0  0  0  0  0  0  0
  -14.5420  -26.7880   -6.3130 C   0  0  0  0  0  0  0  0  0  0  0  0
  -15.9070  -26.5560   -6.0540 C   0  0  0  0  0  0  0  0  0  0  0  0
  -16.7080  -27.0030   -5.0300 N   0  0  0  0  0  0  0  0  0  0  0  0
  -16.3860  -27.6180   -4.2850 H   0  0  0  0  0  0  0  0  0  0  0  0
  -17.9760  -26.5290   -5.1880 C   0  0  0  0  0  0  0  0  0  0  0  0
  -21.6030  -25.7900   -6.7940 C   0  0  0  0  0  0  0  0  0  0  0  0
  -22.5950  -26.0070   -7.8130 O   0  0  0  0  0  0  0  0  0  0  0  0
  -23.8860  -25.8730   -7.3620 C   0  0  0  0  0  0  0  0  0  0  0  0
  -24.2400  -25.3760   -6.1090 C   0  0  0  0  0  0  0  0  0  0  0  0
  -25.5640  -25.3100   -5.7070 C   0  0  0  0  0  0  0  0  0  0  0  0
  -26.5230  -25.7690   -6.6410 C   0  0  0  0  0  0  0  0  0  0  0  0
  -26.2360  -26.2460   -7.8660 N   0  0  0  0  0  0  0  0  0  0  0  0
  -24.9220  -26.2780   -8.1920 C   0  0  0  0  0  0  0  0  0  0  0  0
  -25.9650  -24.8120   -4.4000 C   0  0  0  0  0  0  0  0  0  0  0  0
  -25.4740  -23.6780   -3.8050 C   0  0  0  0  0  0  0  0  0  0  0  0
  -25.8930  -23.2010   -2.4960 C   0  0  0  0  0  0  0  0  0  0  0  0
  -27.1220  -23.6770   -1.9820 C   0  0  0  0  0  0  0  0  0  0  0  0
  -27.5220  -23.2280   -0.7410 C   0  0  0  0  0  0  0  0  0  0  0  0
  -26.8310  -22.3650    0.0240 N   0  0  0  0  0  0  0  0  0  0  0  0
  -25.6530  -21.9240   -0.4960 C   0  0  0  0  0  0  0  0  0  0  0  0
  -25.1570  -22.3090   -1.7250 C   0  0  0  0  0  0  0  0  0  0  0  0
  1  6  1  6  0  0  0
  1 17  1  0  0  0  0
  2  1  1  0  0  0  0
  3  2  1  0  0  0  0
  4  2  1  0  0  0  0
  5  2  1  0  0  0  0
  6  7  1  0  0  0  0
  7 16  2  0  0  0  0
  8  7  1  0  0  0  0
  8 13  2  0  0  0  0
  9  8  1  0  0  0  0
 10  9  2  0  0  0  0
 10 11  1  0  0  0  0
 11 12  2  0  0  0  0
 12 13  1  0  0  0  0
 13 14  1  0  0  0  0
 14 15  1  0  0  0  0
 16 14  1  0  0  0  0
 18 19  1  0  0  0  0
 18 17  1  0  0  0  0
 19 20  2  0  0  0  0
 20 21  1  0  0  0  0
 21 25  1  0  0  0  0
 22 21  2  0  0  0  0
 23 22  1  0  0  0  0
 24 23  2  0  0  0  0
 24 19  1  0  0  0  0
 25 26  2  0  0  0  0
 26 27  1  0  0  0  0
 27 28  2  0  0  0  0
 27 32  1  0  0  0  0
 28 29  1  0  0  0  0
 29 30  2  0  0  0  0
 31 30  1  0  0  0  0
 32 31  2  0  0  0  0
M  END
>  <minimizedAffinity>
-7.71006203

$$$$

 OpenBabel12271914533D

 32 35  0  0  1  0  0  0  0  0999 V2000
  -16.1880  -26.2350   -6.5330 C   0  0  1  0  0  0  0  0  0  0  0  0
  -15.2630  -27.3890   -6.8140 N   0  0  0  0  0  0  0  0  0  0  0  0
  -14.2860  -27.0800   -6.9000 H   0  0  0  0  0  0  0  0  0  0  0  0
  -15.5300  -27.8500   -7.6990 H   0  0  0  0  0  0  0  0  0  0  0  0
  -15.2870  -28.1150   -6.0770 H   0  0  0  0  0  0  0  0  0  0  0  0
  -15.8040  -25.0060   -7.3830 C   0  0  0  0  0  0  0  0  0  0  0  0
  -14.7700  -25.3120   -8.3940 C   0  0  0  0  0  0  0  0  0  0  0  0
  -14.9920  -25.4850   -9.7970 C   0  0  0  0  0  0  0  0  0  0  0  0
  -16.1410  -25.4120  -10.6250 C   0  0  0  0  0  0  0  0  0  0  0  0
  -16.0030  -25.6540  -11.9810 C   0  0  0  0  0  0  0  0  0  0  0  0
  -14.7640  -25.9770  -12.5260 C   0  0  0  0  0  0  0  0  0  0  0  0
  -13.6240  -26.0660  -11.7350 C   0  0  0  0  0  0  0  0  0  0  0  0
  -13.7630  -25.8070  -10.3580 C   0  0  0  0  0  0  0  0  0  0  0  0
  -12.8310  -25.8380   -9.3480 N   0  0  0  0  0  0  0  0  0  0  0  0
  -11.8540  -26.0890   -9.4850 H   0  0  0  0  0  0  0  0  0  0  0  0
  -13.4200  -25.5210   -8.1600 C   0  0  0  0  0  0  0  0  0  0  0  0
  -17.6020  -26.6640   -6.8860 C   0  0  0  0  0  0  0  0  0  0  0  0
  -17.4960  -27.9840   -7.4510 O   0  0  0  0  0  0  0  0  0  0  0  0
  -18.0010  -28.0790   -8.7250 C   0  0  0  0  0  0  0  0  0  0  0  0
  -17.3330  -28.6640   -9.8000 C   0  0  0  0  0  0  0  0  0  0  0  0
  -17.8890  -28.6870  -11.0690 C   0  0  0  0  0  0  0  0  0  0  0  0
  -19.1640  -28.0890  -11.2010 C   0  0  0  0  0  0  0  0  0  0  0  0
  -19.8560  -27.5220  -10.1960 N   0  0  0  0  0  0  0  0  0  0  0  0
  -19.2530  -27.5400   -8.9830 C   0  0  0  0  0  0  0  0  0  0  0  0
  -17.2110  -29.2750  -12.2130 C   0  0  0  0  0  0  0  0  0  0  0  0
  -17.3240  -28.8370  -13.5080 C   0  0  0  0  0  0  0  0  0  0  0  0
  -16.6330  -29.4430  -14.6350 C   0  0  0  0  0  0  0  0  0  0  0  0
  -17.3230  -30.4290  -15.3790 C   0  0  0  0  0  0  0  0  0  0  0  0
  -16.6730  -31.0050  -16.4490 C   0  0  0  0  0  0  0  0  0  0  0  0
  -15.4230  -30.7020  -16.8440 N   0  0  0  0  0  0  0  0  0  0  0  0
  -14.7850  -29.7500  -16.1100 C   0  0  0  0  0  0  0  0  0  0  0  0
  -15.3410  -29.1090  -15.0220 C   0  0  0  0  0  0  0  0  0  0  0  0
  1  6  1  6  0  0  0
  2  1  1  0  0  0  0
  2  5  1  0  0  0  0
  3  2  1  0  0  0  0
  4  2  1  0  0  0  0
  7 16  2  0  0  0  0
  7  6  1  0  0  0  0
  8  7  1  0  0  0  0
  9  8  2  0  0  0  0
 10  9  1  0  0  0  0
 11 10  2  0  0  0  0
 11 12  1  0  0  0  0
 12 13  2  0  0  0  0
 13  8  1  0  0  0  0
 13 14  1  0  0  0  0
 14 16  1  0  0  0  0
 15 14  1  0  0  0  0
 17  1  1  0  0  0  0
 18 17  1  0  0  0  0
 19 18  1  0  0  0  0
 20 19  2  0  0  0  0
 21 20  1  0  0  0  0
 22 21  2  0  0  0  0
 22 23  1  0  0  0  0
 23 24  2  0  0  0  0
 24 19  1  0  0  0  0
 25 21  1  0  0  0  0
 26 25  2  0  0  0  0
 27 26  1  0  0  0  0
 28 27  2  0  0  0  0
 29 28  1  0  0  0  0
 30 29  2  0  0  0  0
 30 31  1  0  0  0  0
 31 32  2  0  0  0  0
 32 27  1  0  0  0  0
M  END
>  <minimizedAffinity>
-7.63967323

$$$$
