
 OpenBabel12271914443D

 27 29  0  0  1  0  0  0  0  0999 V2000
  -15.6800  -25.7840   -9.1130 C   0  0  1  0  0  0  0  0  0  0  0  0
  -14.6540  -24.7280   -9.0660 N   0  0  0  0  0  0  0  0  0  0  0  0
  -13.7610  -25.1120   -8.6780 H   0  0  0  0  0  0  0  0  0  0  0  0
  -14.1870  -24.6470  -10.6030 O   0  0  0  0  0  0  0  0  0  0  0  0
  -14.8270  -25.7800  -11.2310 C   0  0  2  0  0  0  0  0  0  0  0  0
  -13.7560  -26.3510  -12.1310 C   0  0  1  0  0  0  0  0  0  0  0  0
  -14.1380  -26.2350  -13.5840 C   0  0  2  0  0  0  0  0  0  0  0  0
  -15.5220  -26.7020  -13.7670 C   0  0  1  0  0  0  0  0  0  0  0  0
  -16.4410  -25.7180  -13.0830 C   0  0  2  0  0  0  0  0  0  0  0  0
  -16.0030  -25.1710  -11.8190 O   0  0  0  0  0  0  0  0  0  0  0  0
  -15.2740  -26.7150  -10.1840 C   0  0  0  0  0  0  0  0  0  0  0  0
  -15.6840  -26.3540   -7.7330 C   0  0  0  0  0  0  0  0  0  0  0  0
  -14.5620  -27.0760   -7.2830 C   0  0  0  0  0  0  0  0  0  0  0  0
  -14.5460  -27.6300   -6.0320 C   0  0  0  0  0  0  0  0  0  0  0  0
  -15.6180  -27.4740   -5.1680 C   0  0  0  0  0  0  0  0  0  0  0  0
  -15.5150  -28.1070   -3.8190 C   0  0  0  0  0  0  0  0  0  0  0  0
  -16.7440  -26.7770   -5.6030 C   0  0  0  0  0  0  0  0  0  0  0  0
  -16.7700  -26.2160   -6.8770 C   0  0  0  0  0  0  0  0  0  0  0  0
  -13.2440  -27.1210  -14.3180 O   0  0  0  0  0  0  0  0  0  0  0  0
  -13.4760  -26.9810  -15.2530 H   0  0  0  0  0  0  0  0  0  0  0  0
  -12.4770  -25.7130  -11.8960 O   0  0  0  0  0  0  0  0  0  0  0  0
  -12.5920  -24.7730  -12.1360 H   0  0  0  0  0  0  0  0  0  0  0  0
  -15.8390  -26.6580  -15.1630 O   0  0  0  0  0  0  0  0  0  0  0  0
  -16.4960  -25.9480  -15.3010 H   0  0  0  0  0  0  0  0  0  0  0  0
  -17.7930  -26.2980  -12.9070 C   0  0  0  0  0  0  0  0  0  0  0  0
  -18.5380  -25.9890  -14.0940 O   0  0  0  0  0  0  0  0  0  0  0  0
  -19.4350  -25.7020  -13.8430 H   0  0  0  0  0  0  0  0  0  0  0  0
  1  2  1  0  0  0  0
  1 12  1  1  0  0  0
  2  3  1  0  0  0  0
  4  2  1  0  0  0  0
  5  4  1  0  0  0  0
  5 11  1  1  0  0  0
  6 21  1  0  0  0  0
  6  5  1  1  0  0  0
  7 19  1  6  0  0  0
  7  6  1  0  0  0  0
  8 23  1  6  0  0  0
  8  7  1  0  0  0  0
  8  9  1  0  0  0  0
  9 25  1  1  0  0  0
  9 10  1  0  0  0  0
 10  5  1  0  0  0  0
 11  1  1  0  0  0  0
 12 13  2  0  0  0  0
 12 18  1  0  0  0  0
 13 14  1  0  0  0  0
 14 15  2  0  0  0  0
 15 16  1  0  0  0  0
 17 15  1  0  0  0  0
 18 17  2  0  0  0  0
 20 19  1  0  0  0  0
 22 21  1  0  0  0  0
 24 23  1  0  0  0  0
 26 27  1  0  0  0  0
 26 25  1  0  0  0  0
M  END
>  <minimizedAffinity>
-8.11761189

$$$$

 OpenBabel12271914443D

 27 29  0  0  1  0  0  0  0  0999 V2000
  -25.2680  -24.7920   -3.1370 C   0  0  1  0  0  0  0  0  0  0  0  0
  -25.6050  -25.9990   -2.3650 N   0  0  0  0  0  0  0  0  0  0  0  0
  -26.6140  -25.9800   -2.0890 H   0  0  0  0  0  0  0  0  0  0  0  0
  -25.7350  -27.1110   -3.5210 O   0  0  0  0  0  0  0  0  0  0  0  0
  -25.6800  -26.3530   -4.7510 C   0  0  2  0  0  0  0  0  0  0  0  0
  -26.7470  -26.9830   -5.6150 C   0  0  1  0  0  0  0  0  0  0  0  0
  -26.1530  -27.6460   -6.8300 C   0  0  2  0  0  0  0  0  0  0  0  0
  -25.1920  -26.7320   -7.4680 C   0  0  1  0  0  0  0  0  0  0  0  0
  -24.0110  -26.5740   -6.5400 C   0  0  2  0  0  0  0  0  0  0  0  0
  -24.2870  -26.4920   -5.1250 O   0  0  0  0  0  0  0  0  0  0  0  0
  -25.9310  -24.9340   -4.4480 C   0  0  0  0  0  0  0  0  0  0  0  0
  -25.7570  -23.6640   -2.2880 C   0  0  0  0  0  0  0  0  0  0  0  0
  -24.8490  -22.6760   -1.8640 C   0  0  0  0  0  0  0  0  0  0  0  0
  -25.2630  -21.6440   -1.0670 C   0  0  0  0  0  0  0  0  0  0  0  0
  -26.5880  -21.5300   -0.6790 C   0  0  0  0  0  0  0  0  0  0  0  0
  -26.9550  -20.3700    0.1870 C   0  0  0  0  0  0  0  0  0  0  0  0
  -27.4980  -22.5080   -1.0750 C   0  0  0  0  0  0  0  0  0  0  0  0
  -27.0820  -23.5650   -1.8810 C   0  0  0  0  0  0  0  0  0  0  0  0
  -27.2560  -27.8840   -7.7510 O   0  0  0  0  0  0  0  0  0  0  0  0
  -26.8520  -28.3620   -8.4970 H   0  0  0  0  0  0  0  0  0  0  0  0
  -27.5400  -27.9340   -4.8620 O   0  0  0  0  0  0  0  0  0  0  0  0
  -26.9280  -28.6440   -4.5870 H   0  0  0  0  0  0  0  0  0  0  0  0
  -24.6970  -27.3480   -8.6620 O   0  0  0  0  0  0  0  0  0  0  0  0
  -23.7580  -27.5750   -8.5180 H   0  0  0  0  0  0  0  0  0  0  0  0
  -23.1870  -25.4070   -6.9340 C   0  0  0  0  0  0  0  0  0  0  0  0
  -23.9680  -24.6380   -7.8610 O   0  0  0  0  0  0  0  0  0  0  0  0
  -23.4000  -24.3540   -8.6000 H   0  0  0  0  0  0  0  0  0  0  0  0
  1  2  1  0  0  0  0
  1 12  1  1  0  0  0
  2  3  1  0  0  0  0
  4  2  1  0  0  0  0
  5 11  1  1  0  0  0
  5  4  1  0  0  0  0
  6 21  1  0  0  0  0
  6  5  1  1  0  0  0
  7 19  1  6  0  0  0
  7  6  1  0  0  0  0
  8 23  1  6  0  0  0
  8  7  1  0  0  0  0
  8  9  1  0  0  0  0
  9 25  1  6  0  0  0
  9 10  1  0  0  0  0
 10  5  1  0  0  0  0
 11  1  1  0  0  0  0
 12 18  2  0  0  0  0
 12 13  1  0  0  0  0
 13 14  2  0  0  0  0
 14 15  1  0  0  0  0
 15 16  1  0  0  0  0
 17 15  2  0  0  0  0
 18 17  1  0  0  0  0
 20 19  1  0  0  0  0
 21 22  1  0  0  0  0
 23 24  1  0  0  0  0
 26 25  1  0  0  0  0
 27 26  1  0  0  0  0
M  END
>  <minimizedAffinity>
-7.7191

$$$$

 OpenBabel12271914443D

 27 29  0  0  1  0  0  0  0  0999 V2000
  -16.8460  -26.0330   -9.0230 C   0  0  1  0  0  0  0  0  0  0  0  0
  -15.6540  -25.4530   -9.6640 N   0  0  0  0  0  0  0  0  0  0  0  0
  -14.8710  -26.1470   -9.6630 H   0  0  0  0  0  0  0  0  0  0  0  0
  -16.0240  -25.5690  -11.2260 O   0  0  0  0  0  0  0  0  0  0  0  0
  -17.2240  -26.3730  -11.2490 C   0  0  2  0  0  0  0  0  0  0  0  0
  -17.0060  -27.3190  -12.4070 C   0  0  1  0  0  0  0  0  0  0  0  0
  -18.0020  -27.0760  -13.5120 C   0  0  2  0  0  0  0  0  0  0  0  0
  -19.3550  -26.9760  -12.9400 C   0  0  1  0  0  0  0  0  0  0  0  0
  -19.4230  -25.7100  -12.1210 C   0  0  2  0  0  0  0  0  0  0  0  0
  -18.2590  -25.3640  -11.3380 O   0  0  0  0  0  0  0  0  0  0  0  0
  -17.3640  -27.0570   -9.9520 C   0  0  0  0  0  0  0  0  0  0  0  0
  -16.3450  -26.5480   -7.7130 C   0  0  0  0  0  0  0  0  0  0  0  0
  -15.0710  -27.1440   -7.6490 C   0  0  0  0  0  0  0  0  0  0  0  0
  -14.5950  -27.6450   -6.4690 C   0  0  0  0  0  0  0  0  0  0  0  0
  -15.3390  -27.5580   -5.3040 C   0  0  0  0  0  0  0  0  0  0  0  0
  -14.7420  -28.1250   -4.0580 C   0  0  0  0  0  0  0  0  0  0  0  0
  -16.6100  -26.9860   -5.3520 C   0  0  0  0  0  0  0  0  0  0  0  0
  -17.1040  -26.4800   -6.5520 C   0  0  0  0  0  0  0  0  0  0  0  0
  -17.9450  -28.2420  -14.3820 O   0  0  0  0  0  0  0  0  0  0  0  0
  -18.5530  -28.0320  -15.1120 H   0  0  0  0  0  0  0  0  0  0  0  0
  -15.6550  -27.2200  -12.9190 O   0  0  0  0  0  0  0  0  0  0  0  0
  -15.5570  -26.3100  -13.2610 H   0  0  0  0  0  0  0  0  0  0  0  0
  -20.2930  -26.8240  -14.0110 O   0  0  0  0  0  0  0  0  0  0  0  0
  -20.6550  -25.9170  -13.9690 H   0  0  0  0  0  0  0  0  0  0  0  0
  -20.6080  -25.7240  -11.2310 C   0  0  0  0  0  0  0  0  0  0  0  0
  -21.7640  -25.6060  -12.0730 O   0  0  0  0  0  0  0  0  0  0  0  0
  -22.3900  -24.9760  -11.6710 H   0  0  0  0  0  0  0  0  0  0  0  0
  1 12  1  1  0  0  0
  2  3  1  0  0  0  0
  2  1  1  0  0  0  0
  4  2  1  0  0  0  0
  5  4  1  0  0  0  0
  5 11  1  1  0  0  0
  6  5  1  1  0  0  0
  7 19  1  6  0  0  0
  7  8  1  0  0  0  0
  7  6  1  0  0  0  0
  8 23  1  6  0  0  0
  8  9  1  0  0  0  0
  9 10  1  0  0  0  0
  9 25  1  1  0  0  0
 10  5  1  0  0  0  0
 11  1  1  0  0  0  0
 12 13  2  0  0  0  0
 12 18  1  0  0  0  0
 13 14  1  0  0  0  0
 14 15  2  0  0  0  0
 15 16  1  0  0  0  0
 17 15  1  0  0  0  0
 18 17  2  0  0  0  0
 20 19  1  0  0  0  0
 21  6  1  0  0  0  0
 22 21  1  0  0  0  0
 23 24  1  0  0  0  0
 26 27  1  0  0  0  0
 26 25  1  0  0  0  0
M  END
>  <minimizedAffinity>
-7.49586725

$$$$

 OpenBabel12271914443D

 27 29  0  0  1  0  0  0  0  0999 V2000
  -15.6210  -26.0340  -10.5760 C   0  0  1  0  0  0  0  0  0  0  0  0
  -14.3490  -25.3560  -10.8780 N   0  0  0  0  0  0  0  0  0  0  0  0
  -13.5440  -25.9470  -10.5670 H   0  0  0  0  0  0  0  0  0  0  0  0
  -14.1950  -25.6230  -12.4580 O   0  0  0  0  0  0  0  0  0  0  0  0
  -15.2430  -26.5690  -12.7640 C   0  0  2  0  0  0  0  0  0  0  0  0
  -14.5820  -27.5580  -13.6950 C   0  0  1  0  0  0  0  0  0  0  0  0
  -15.1960  -27.5150  -15.0710 C   0  0  2  0  0  0  0  0  0  0  0  0
  -16.6640  -27.5440  -14.9540 C   0  0  1  0  0  0  0  0  0  0  0  0
  -17.1080  -26.2430  -14.3300 C   0  0  2  0  0  0  0  0  0  0  0  0
  -16.2890  -25.7040  -13.2680 O   0  0  0  0  0  0  0  0  0  0  0  0
  -15.7200  -27.1750  -11.5080 C   0  0  0  0  0  0  0  0  0  0  0  0
  -15.5120  -26.3930   -9.1300 C   0  0  0  0  0  0  0  0  0  0  0  0
  -14.4460  -27.2050   -8.7010 C   0  0  0  0  0  0  0  0  0  0  0  0
  -14.3330  -27.5690   -7.3870 C   0  0  0  0  0  0  0  0  0  0  0  0
  -15.2460  -27.1290   -6.4430 C   0  0  0  0  0  0  0  0  0  0  0  0
  -15.0450  -27.5690   -5.0300 C   0  0  0  0  0  0  0  0  0  0  0  0
  -16.3180  -26.3380   -6.8530 C   0  0  0  0  0  0  0  0  0  0  0  0
  -16.4430  -25.9690   -8.1900 C   0  0  0  0  0  0  0  0  0  0  0  0
  -14.7570  -28.7220  -15.7560 O   0  0  0  0  0  0  0  0  0  0  0  0
  -15.1210  -28.6390  -16.6550 H   0  0  0  0  0  0  0  0  0  0  0  0
  -13.1540  -27.3280  -13.7770 O   0  0  0  0  0  0  0  0  0  0  0  0
  -13.0410  -26.4380  -14.1650 H   0  0  0  0  0  0  0  0  0  0  0  0
  -17.2270  -27.5820  -16.2700 O   0  0  0  0  0  0  0  0  0  0  0  0
  -17.6680  -26.7260  -16.4340 H   0  0  0  0  0  0  0  0  0  0  0  0
  -18.5060  -26.3430  -13.8490 C   0  0  0  0  0  0  0  0  0  0  0  0
  -19.3500  -26.3250  -15.0100 O   0  0  0  0  0  0  0  0  0  0  0  0
  -20.1130  -25.7440  -14.8420 H   0  0  0  0  0  0  0  0  0  0  0  0
  1 12  1  1  0  0  0
  2  1  1  0  0  0  0
  2  3  1  0  0  0  0
  4  2  1  0  0  0  0
  5  4  1  0  0  0  0
  5 11  1  1  0  0  0
  6  5  1  1  0  0  0
  7 19  1  6  0  0  0
  7  8  1  0  0  0  0
  7  6  1  0  0  0  0
  8 23  1  6  0  0  0
  8  9  1  0  0  0  0
  9 25  1  1  0  0  0
  9 10  1  0  0  0  0
 10  5  1  0  0  0  0
 11  1  1  0  0  0  0
 12 13  2  0  0  0  0
 12 18  1  0  0  0  0
 13 14  1  0  0  0  0
 14 15  2  0  0  0  0
 15 16  1  0  0  0  0
 17 15  1  0  0  0  0
 18 17  2  0  0  0  0
 20 19  1  0  0  0  0
 21  6  1  0  0  0  0
 22 21  1  0  0  0  0
 24 23  1  0  0  0  0
 26 27  1  0  0  0  0
 26 25  1  0  0  0  0
M  END
>  <minimizedAffinity>
-7.47549105

$$$$

 OpenBabel12271914443D

 27 29  0  0  1  0  0  0  0  0999 V2000
  -18.5120  -27.1480   -8.5480 C   0  0  1  0  0  0  0  0  0  0  0  0
  -18.5850  -28.0040   -9.7440 N   0  0  0  0  0  0  0  0  0  0  0  0
  -19.0350  -27.4830  -10.5320 H   0  0  0  0  0  0  0  0  0  0  0  0
  -17.0750  -27.9380  -10.2950 O   0  0  0  0  0  0  0  0  0  0  0  0
  -16.4470  -26.9120   -9.4930 C   0  0  2  0  0  0  0  0  0  0  0  0
  -15.6280  -26.1220  -10.4870 C   0  0  1  0  0  0  0  0  0  0  0  0
  -14.1530  -26.2450  -10.2070 C   0  0  2  0  0  0  0  0  0  0  0  0
  -13.9060  -26.0260   -8.7720 C   0  0  1  0  0  0  0  0  0  0  0  0
  -14.5050  -27.1850   -8.0130 C   0  0  2  0  0  0  0  0  0  0  0  0
  -15.7740  -27.6960   -8.4780 O   0  0  0  0  0  0  0  0  0  0  0  0
  -17.4960  -26.1160   -8.8330 C   0  0  0  0  0  0  0  0  0  0  0  0
  -19.9070  -26.6440   -8.3710 C   0  0  0  0  0  0  0  0  0  0  0  0
  -20.8620  -26.8930   -9.3760 C   0  0  0  0  0  0  0  0  0  0  0  0
  -22.1410  -26.4240   -9.2520 C   0  0  0  0  0  0  0  0  0  0  0  0
  -22.5380  -25.7180   -8.1290 C   0  0  0  0  0  0  0  0  0  0  0  0
  -23.9540  -25.2480   -8.0730 C   0  0  0  0  0  0  0  0  0  0  0  0
  -21.6010  -25.4480   -7.1320 C   0  0  0  0  0  0  0  0  0  0  0  0
  -20.2950  -25.9160   -7.2530 C   0  0  0  0  0  0  0  0  0  0  0  0
  -13.5000  -25.1850  -10.9620 O   0  0  0  0  0  0  0  0  0  0  0  0
  -12.5490  -25.3250  -10.8070 H   0  0  0  0  0  0  0  0  0  0  0  0
  -15.9160  -26.5300  -11.8470 O   0  0  0  0  0  0  0  0  0  0  0  0
  -15.6400  -27.4660  -11.9170 H   0  0  0  0  0  0  0  0  0  0  0  0
  -12.4940  -26.0680   -8.5390 O   0  0  0  0  0  0  0  0  0  0  0  0
  -12.2960  -26.8780   -8.0290 H   0  0  0  0  0  0  0  0  0  0  0  0
  -14.6220  -26.8630   -6.5710 C   0  0  0  0  0  0  0  0  0  0  0  0
  -15.6830  -27.6740   -6.0460 O   0  0  0  0  0  0  0  0  0  0  0  0
  -16.2380  -27.1330   -5.4560 H   0  0  0  0  0  0  0  0  0  0  0  0
  1 12  1  6  0  0  0
  2  1  1  0  0  0  0
  3  2  1  0  0  0  0
  4  2  1  0  0  0  0
  4  5  1  0  0  0  0
  5 11  1  1  0  0  0
  5 10  1  0  0  0  0
  6  7  1  0  0  0  0
  6  5  1  1  0  0  0
  7 19  1  6  0  0  0
  7  8  1  0  0  0  0
  8 23  1  6  0  0  0
  8  9  1  0  0  0  0
  9 25  1  1  0  0  0
 10  9  1  0  0  0  0
 11  1  1  0  0  0  0
 12 18  2  0  0  0  0
 13 14  2  0  0  0  0
 13 12  1  0  0  0  0
 14 15  1  0  0  0  0
 15 16  1  0  0  0  0
 15 17  2  0  0  0  0
 18 17  1  0  0  0  0
 19 20  1  0  0  0  0
 21  6  1  0  0  0  0
 22 21  1  0  0  0  0
 23 24  1  0  0  0  0
 25 26  1  0  0  0  0
 26 27  1  0  0  0  0
M  END
>  <minimizedAffinity>
-7.34497881

$$$$

 OpenBabel12271914443D

 27 29  0  0  1  0  0  0  0  0999 V2000
  -18.0270  -27.0300   -9.7060 C   0  0  1  0  0  0  0  0  0  0  0  0
  -17.8230  -27.7550   -8.4410 N   0  0  0  0  0  0  0  0  0  0  0  0
  -17.2730  -27.1670   -7.7730 H   0  0  0  0  0  0  0  0  0  0  0  0
  -19.2540  -27.5870   -7.7230 O   0  0  0  0  0  0  0  0  0  0  0  0
  -19.9580  -26.6340   -8.5520 C   0  0  2  0  0  0  0  0  0  0  0  0
  -20.6370  -25.7200   -7.5600 C   0  0  1  0  0  0  0  0  0  0  0  0
  -22.1370  -25.8280   -7.6470 C   0  0  2  0  0  0  0  0  0  0  0  0
  -22.5530  -25.7560   -9.0570 C   0  0  1  0  0  0  0  0  0  0  0  0
  -22.0690  -27.0060   -9.7510 C   0  0  2  0  0  0  0  0  0  0  0  0
  -20.7620  -27.5020   -9.3880 O   0  0  0  0  0  0  0  0  0  0  0  0
  -18.9850  -25.9440   -9.4160 C   0  0  0  0  0  0  0  0  0  0  0  0
  -16.6560  -26.5890  -10.1010 C   0  0  0  0  0  0  0  0  0  0  0  0
  -16.5040  -25.6920  -11.1760 C   0  0  0  0  0  0  0  0  0  0  0  0
  -15.2600  -25.2880  -11.5760 C   0  0  0  0  0  0  0  0  0  0  0  0
  -14.1210  -25.7290  -10.9210 C   0  0  0  0  0  0  0  0  0  0  0  0
  -12.8030  -25.2340  -11.4190 C   0  0  0  0  0  0  0  0  0  0  0  0
  -14.2520  -26.6300   -9.8650 C   0  0  0  0  0  0  0  0  0  0  0  0
  -15.5150  -27.0510   -9.4570 C   0  0  0  0  0  0  0  0  0  0  0  0
  -22.6760  -24.6750   -6.9390 O   0  0  0  0  0  0  0  0  0  0  0  0
  -23.6410  -24.8030   -6.9630 H   0  0  0  0  0  0  0  0  0  0  0  0
  -20.1920  -25.9890   -6.2070 O   0  0  0  0  0  0  0  0  0  0  0  0
  -20.4720  -26.9030   -6.0040 H   0  0  0  0  0  0  0  0  0  0  0  0
  -23.9840  -25.7820   -9.1140 O   0  0  0  0  0  0  0  0  0  0  0  0
  -24.2550  -26.6350   -9.5050 H   0  0  0  0  0  0  0  0  0  0  0  0
  -22.1240  -26.8430  -11.2230 C   0  0  0  0  0  0  0  0  0  0  0  0
  -22.3340  -25.4470  -11.4820 O   0  0  0  0  0  0  0  0  0  0  0  0
  -23.0000  -25.3480  -12.1860 H   0  0  0  0  0  0  0  0  0  0  0  0
  1 12  1  1  0  0  0
  1 11  1  0  0  0  0
  1  2  1  0  0  0  0
  2  3  1  0  0  0  0
  2  4  1  0  0  0  0
  5 11  1  6  0  0  0
  5  4  1  0  0  0  0
  6  5  1  6  0  0  0
  6 21  1  0  0  0  0
  7  6  1  0  0  0  0
  7 19  1  1  0  0  0
  8 23  1  1  0  0  0
  8  7  1  0  0  0  0
  9 25  1  6  0  0  0
  9 10  1  0  0  0  0
  9  8  1  0  0  0  0
 10  5  1  0  0  0  0
 12 18  2  0  0  0  0
 13 12  1  0  0  0  0
 14 13  2  0  0  0  0
 14 15  1  0  0  0  0
 15 17  2  0  0  0  0
 16 15  1  0  0  0  0
 17 18  1  0  0  0  0
 20 19  1  0  0  0  0
 21 22  1  0  0  0  0
 24 23  1  0  0  0  0
 26 25  1  0  0  0  0
 27 26  1  0  0  0  0
M  END
>  <minimizedAffinity>
-7.3412838

$$$$

 OpenBabel12271914443D

 27 29  0  0  1  0  0  0  0  0999 V2000
  -18.7360  -26.1570   -8.9380 C   0  0  1  0  0  0  0  0  0  0  0  0
  -18.0960  -26.2990  -10.2570 N   0  0  0  0  0  0  0  0  0  0  0  0
  -17.6600  -27.2460  -10.3450 H   0  0  0  0  0  0  0  0  0  0  0  0
  -19.3610  -26.5710  -11.2140 O   0  0  0  0  0  0  0  0  0  0  0  0
  -20.4650  -26.7630  -10.3010 C   0  0  2  0  0  0  0  0  0  0  0  0
  -21.2230  -27.9310  -10.8870 C   0  0  1  0  0  0  0  0  0  0  0  0
  -22.6000  -27.5210  -11.3430 C   0  0  2  0  0  0  0  0  0  0  0  0
  -23.2510  -26.7280  -10.2870 C   0  0  1  0  0  0  0  0  0  0  0  0
  -22.5140  -25.4150  -10.1680 C   0  0  2  0  0  0  0  0  0  0  0  0
  -21.0750  -25.4490  -10.2900 O   0  0  0  0  0  0  0  0  0  0  0  0
  -19.9280  -27.0270   -8.9550 C   0  0  0  0  0  0  0  0  0  0  0  0
  -17.6690  -26.5480   -7.9680 C   0  0  0  0  0  0  0  0  0  0  0  0
  -17.9430  -26.5050   -6.5880 C   0  0  0  0  0  0  0  0  0  0  0  0
  -16.9790  -26.8360   -5.6760 C   0  0  0  0  0  0  0  0  0  0  0  0
  -15.7200  -27.2450   -6.0840 C   0  0  0  0  0  0  0  0  0  0  0  0
  -14.7290  -27.5930   -5.0220 C   0  0  0  0  0  0  0  0  0  0  0  0
  -15.4250  -27.2780   -7.4460 C   0  0  0  0  0  0  0  0  0  0  0  0
  -16.4000  -26.9360   -8.3810 C   0  0  0  0  0  0  0  0  0  0  0  0
  -23.3540  -28.7520  -11.5370 O   0  0  0  0  0  0  0  0  0  0  0  0
  -24.2140  -28.4590  -11.8840 H   0  0  0  0  0  0  0  0  0  0  0  0
  -20.4920  -28.5360  -11.9820 O   0  0  0  0  0  0  0  0  0  0  0  0
  -20.4230  -27.8520  -12.6770 H   0  0  0  0  0  0  0  0  0  0  0  0
  -24.5840  -26.4150  -10.7050 O   0  0  0  0  0  0  0  0  0  0  0  0
  -24.6270  -25.4550  -10.8820 H   0  0  0  0  0  0  0  0  0  0  0  0
  -22.8690  -24.7280   -8.9040 C   0  0  0  0  0  0  0  0  0  0  0  0
  -22.9450  -23.3250   -9.1980 O   0  0  0  0  0  0  0  0  0  0  0  0
  -22.5080  -22.8250   -8.4850 H   0  0  0  0  0  0  0  0  0  0  0  0
  1 12  1  1  0  0  0
  2  1  1  0  0  0  0
  3  2  1  0  0  0  0
  4  5  1  0  0  0  0
  4  2  1  0  0  0  0
  5 10  1  0  0  0  0
  5 11  1  1  0  0  0
  6  5  1  6  0  0  0
  7 19  1  1  0  0  0
  7  6  1  0  0  0  0
  7  8  1  0  0  0  0
  8 23  1  6  0  0  0
  8  9  1  0  0  0  0
  9 25  1  1  0  0  0
 10  9  1  0  0  0  0
 11  1  1  0  0  0  0
 12 13  1  0  0  0  0
 13 14  2  0  0  0  0
 15 14  1  0  0  0  0
 15 16  1  0  0  0  0
 17 15  2  0  0  0  0
 18 12  2  0  0  0  0
 18 17  1  0  0  0  0
 20 19  1  0  0  0  0
 21  6  1  0  0  0  0
 22 21  1  0  0  0  0
 24 23  1  0  0  0  0
 26 25  1  0  0  0  0
 26 27  1  0  0  0  0
M  END
>  <minimizedAffinity>
-7.26149321

$$$$

 OpenBabel12271914443D

 27 29  0  0  1  0  0  0  0  0999 V2000
  -17.6170  -27.0260   -9.2850 C   0  0  1  0  0  0  0  0  0  0  0  0
  -17.9650  -28.2530  -10.0220 N   0  0  0  0  0  0  0  0  0  0  0  0
  -18.7930  -28.0800  -10.6370 H   0  0  0  0  0  0  0  0  0  0  0  0
  -16.8510  -28.2740  -11.1830 O   0  0  0  0  0  0  0  0  0  0  0  0
  -16.2020  -26.9870  -11.0770 C   0  0  2  0  0  0  0  0  0  0  0  0
  -16.0390  -26.5410  -12.5110 C   0  0  1  0  0  0  0  0  0  0  0  0
  -14.5860  -26.4470  -12.8980 C   0  0  2  0  0  0  0  0  0  0  0  0
  -13.8470  -25.7160  -11.8550 C   0  0  1  0  0  0  0  0  0  0  0  0
  -13.8250  -26.5730  -10.6120 C   0  0  2  0  0  0  0  0  0  0  0  0
  -15.0270  -27.3090  -10.2930 O   0  0  0  0  0  0  0  0  0  0  0  0
  -17.0510  -26.0890  -10.2760 C   0  0  0  0  0  0  0  0  0  0  0  0
  -18.9020  -26.5980   -8.6560 C   0  0  0  0  0  0  0  0  0  0  0  0
  -20.0770  -26.5840   -9.4310 C   0  0  0  0  0  0  0  0  0  0  0  0
  -21.2650  -26.1740   -8.8880 C   0  0  0  0  0  0  0  0  0  0  0  0
  -21.3480  -25.7890   -7.5600 C   0  0  0  0  0  0  0  0  0  0  0  0
  -22.6840  -25.3630   -7.0480 C   0  0  0  0  0  0  0  0  0  0  0  0
  -20.1910  -25.7810   -6.7830 C   0  0  0  0  0  0  0  0  0  0  0  0
  -18.9770  -26.1900   -7.3300 C   0  0  0  0  0  0  0  0  0  0  0  0
  -14.5370  -25.6770  -14.1330 O   0  0  0  0  0  0  0  0  0  0  0  0
  -13.5970  -25.6820  -14.3860 H   0  0  0  0  0  0  0  0  0  0  0  0
  -16.7430  -27.4250  -13.4190 O   0  0  0  0  0  0  0  0  0  0  0  0
  -16.3180  -28.3010  -13.3330 H   0  0  0  0  0  0  0  0  0  0  0  0
  -12.4870  -25.5690  -12.2760 O   0  0  0  0  0  0  0  0  0  0  0  0
  -11.9300  -26.1290  -11.7000 H   0  0  0  0  0  0  0  0  0  0  0  0
  -13.4300  -25.7720   -9.4300 C   0  0  0  0  0  0  0  0  0  0  0  0
  -12.0020  -25.6340   -9.4760 O   0  0  0  0  0  0  0  0  0  0  0  0
  -11.6370  -25.7720   -8.5830 H   0  0  0  0  0  0  0  0  0  0  0  0
  1 12  1  6  0  0  0
  2  1  1  0  0  0  0
  3  2  1  0  0  0  0
  4  5  1  0  0  0  0
  4  2  1  0  0  0  0
  5 10  1  0  0  0  0
  5 11  1  1  0  0  0
  6  5  1  1  0  0  0
  7 19  1  6  0  0  0
  7  6  1  0  0  0  0
  7  8  1  0  0  0  0
  8 23  1  6  0  0  0
  8  9  1  0  0  0  0
  9 10  1  0  0  0  0
  9 25  1  1  0  0  0
 11  1  1  0  0  0  0
 12 18  2  0  0  0  0
 13 14  2  0  0  0  0
 13 12  1  0  0  0  0
 14 15  1  0  0  0  0
 15 16  1  0  0  0  0
 15 17  2  0  0  0  0
 18 17  1  0  0  0  0
 20 19  1  0  0  0  0
 21 22  1  0  0  0  0
 21  6  1  0  0  0  0
 23 24  1  0  0  0  0
 26 25  1  0  0  0  0
 26 27  1  0  0  0  0
M  END
>  <minimizedAffinity>
-7.22452307

$$$$

 OpenBabel12271914443D

 27 29  0  0  1  0  0  0  0  0999 V2000
  -15.2950  -26.8040  -10.9260 C   0  0  1  0  0  0  0  0  0  0  0  0
  -14.2670  -27.2150   -9.9550 N   0  0  0  0  0  0  0  0  0  0  0  0
  -13.6010  -26.4270   -9.7820 H   0  0  0  0  0  0  0  0  0  0  0  0
  -15.0640  -27.1150   -8.5610 O   0  0  0  0  0  0  0  0  0  0  0  0
  -16.3090  -26.4690   -8.9070 C   0  0  2  0  0  0  0  0  0  0  0  0
  -16.5300  -25.4790   -7.7870 C   0  0  1  0  0  0  0  0  0  0  0  0
  -17.7560  -25.8240   -6.9820 C   0  0  2  0  0  0  0  0  0  0  0  0
  -18.8780  -26.1070   -7.8920 C   0  0  1  0  0  0  0  0  0  0  0  0
  -18.5700  -27.3880   -8.6290 C   0  0  2  0  0  0  0  0  0  0  0  0
  -17.2030  -27.6000   -9.0470 O   0  0  0  0  0  0  0  0  0  0  0  0
  -16.1650  -25.8360  -10.2300 C   0  0  0  0  0  0  0  0  0  0  0  0
  -14.5160  -26.2570  -12.0770 C   0  0  0  0  0  0  0  0  0  0  0  0
  -13.2690  -25.6490  -11.8380 C   0  0  0  0  0  0  0  0  0  0  0  0
  -12.5440  -25.1190  -12.8690 C   0  0  0  0  0  0  0  0  0  0  0  0
  -13.0030  -25.1880  -14.1750 C   0  0  0  0  0  0  0  0  0  0  0  0
  -12.1450  -24.5890  -15.2400 C   0  0  0  0  0  0  0  0  0  0  0  0
  -14.2430  -25.7710  -14.4280 C   0  0  0  0  0  0  0  0  0  0  0  0
  -14.9900  -26.3080  -13.3820 C   0  0  0  0  0  0  0  0  0  0  0  0
  -18.0780  -24.6420   -6.1940 O   0  0  0  0  0  0  0  0  0  0  0  0
  -18.8350  -24.9130   -5.6460 H   0  0  0  0  0  0  0  0  0  0  0  0
  -15.3700  -25.3950   -6.9240 O   0  0  0  0  0  0  0  0  0  0  0  0
  -15.2650  -26.2780   -6.5190 H   0  0  0  0  0  0  0  0  0  0  0  0
  -20.0510  -26.3550   -7.1090 O   0  0  0  0  0  0  0  0  0  0  0  0
  -20.2790  -27.3010   -7.1980 H   0  0  0  0  0  0  0  0  0  0  0  0
  -19.4570  -27.5430   -9.8050 C   0  0  0  0  0  0  0  0  0  0  0  0
  -20.7190  -28.0220   -9.3170 O   0  0  0  0  0  0  0  0  0  0  0  0
  -21.0440  -28.7270   -9.9060 H   0  0  0  0  0  0  0  0  0  0  0  0
  1 12  1  6  0  0  0
  1 11  1  0  0  0  0
  1  2  1  0  0  0  0
  2  3  1  0  0  0  0
  2  4  1  0  0  0  0
  5 11  1  6  0  0  0
  5  4  1  0  0  0  0
  6  5  1  6  0  0  0
  6  7  1  0  0  0  0
  6 21  1  0  0  0  0
  7 19  1  1  0  0  0
  8 23  1  1  0  0  0
  8  7  1  0  0  0  0
  9 25  1  6  0  0  0
  9  8  1  0  0  0  0
 10  5  1  0  0  0  0
 10  9  1  0  0  0  0
 12 13  1  0  0  0  0
 14 13  2  0  0  0  0
 15 14  1  0  0  0  0
 16 15  1  0  0  0  0
 17 15  2  0  0  0  0
 17 18  1  0  0  0  0
 18 12  2  0  0  0  0
 19 20  1  0  0  0  0
 21 22  1  0  0  0  0
 24 23  1  0  0  0  0
 25 26  1  0  0  0  0
 27 26  1  0  0  0  0
M  END
>  <minimizedAffinity>
-7.20326424

$$$$
