
 OpenBabel12271914433D

 24 27  0  0  0  0  0  0  0  0999 V2000
  -16.3020  -25.6990   -9.7170 N   0  0  0  0  0  0  0  0  0  0  0  0
  -17.2590  -26.4820  -10.3340 C   0  0  0  0  0  0  0  0  0  0  0  0
  -18.5100  -26.6660   -9.8360 N   0  0  0  0  0  0  0  0  0  0  0  0
  -18.7900  -27.7720   -8.9050 C   0  0  0  0  0  0  0  0  0  0  0  0
  -19.5060  -28.9630   -9.5820 C   0  0  0  0  0  0  0  0  0  0  0  0
  -20.1680  -28.5820  -10.8630 N   0  0  0  0  0  0  0  0  0  0  0  0
  -19.4460  -28.6030  -11.6080 H   0  0  0  0  0  0  0  0  0  0  0  0
  -20.8740  -29.2700  -11.1130 H   0  0  0  0  0  0  0  0  0  0  0  0
  -20.7490  -27.2070  -10.8380 C   0  0  0  0  0  0  0  0  0  0  0  0
  -19.6570  -26.1430  -10.6020 C   0  0  0  0  0  0  0  0  0  0  0  0
  -16.7710  -26.9320  -11.4720 N   0  0  0  0  0  0  0  0  0  0  0  0
  -15.5020  -26.4520  -11.5980 C   0  0  0  0  0  0  0  0  0  0  0  0
  -14.5610  -26.6270  -12.6200 C   0  0  0  0  0  0  0  0  0  0  0  0
  -13.3050  -26.0170  -12.4970 C   0  0  0  0  0  0  0  0  0  0  0  0
  -12.9970  -25.2530  -11.3840 C   0  0  0  0  0  0  0  0  0  0  0  0
  -13.9350  -25.0850  -10.3650 C   0  0  0  0  0  0  0  0  0  0  0  0
  -15.1790  -25.6880  -10.4980 C   0  0  0  0  0  0  0  0  0  0  0  0
  -16.4280  -25.0660   -8.4210 C   0  0  0  0  0  0  0  0  0  0  0  0
  -16.0880  -25.9720   -7.2660 C   0  0  0  0  0  0  0  0  0  0  0  0
  -16.9700  -26.1220   -6.1930 C   0  0  0  0  0  0  0  0  0  0  0  0
  -16.6520  -26.9320   -5.1080 C   0  0  0  0  0  0  0  0  0  0  0  0
  -15.4430  -27.6130   -5.0800 C   0  0  0  0  0  0  0  0  0  0  0  0
  -14.5560  -27.4680   -6.1400 C   0  0  0  0  0  0  0  0  0  0  0  0
  -14.8780  -26.6550   -7.2180 C   0  0  0  0  0  0  0  0  0  0  0  0
  1 18  1  0  0  0  0
  2  3  1  0  0  0  0
  2  1  1  0  0  0  0
  3  4  1  0  0  0  0
  5  4  1  0  0  0  0
  6  9  1  0  0  0  0
  6  5  1  0  0  0  0
  7  6  1  0  0  0  0
  8  6  1  0  0  0  0
  9 10  1  0  0  0  0
 10  3  1  0  0  0  0
 11  2  2  0  0  0  0
 12 11  2  0  0  0  0
 12 17  1  0  0  0  0
 13 14  1  0  0  0  0
 13 12  1  0  0  0  0
 14 15  2  0  0  0  0
 15 16  1  0  0  0  0
 17 16  2  0  0  0  0
 17  1  1  0  0  0  0
 18 19  1  0  0  0  0
 19 24  2  0  0  0  0
 19 20  1  0  0  0  0
 20 21  2  0  0  0  0
 21 22  1  0  0  0  0
 23 22  2  0  0  0  0
 24 23  1  0  0  0  0
M  END
>  <minimizedAffinity>
-8.29988575

$$$$

 OpenBabel12271914433D

 24 27  0  0  0  0  0  0  0  0999 V2000
  -16.7530  -26.3000   -9.8510 N   0  0  0  0  0  0  0  0  0  0  0  0
  -17.9200  -26.9560   -9.5090 C   0  0  0  0  0  0  0  0  0  0  0  0
  -18.9630  -27.1230  -10.3650 N   0  0  0  0  0  0  0  0  0  0  0  0
  -20.0330  -26.1140  -10.4470 C   0  0  0  0  0  0  0  0  0  0  0  0
  -21.3200  -26.5400   -9.7040 C   0  0  0  0  0  0  0  0  0  0  0  0
  -21.3900  -28.0120   -9.4720 N   0  0  0  0  0  0  0  0  0  0  0  0
  -20.8370  -28.2210   -8.6190 H   0  0  0  0  0  0  0  0  0  0  0  0
  -22.3490  -28.2940   -9.2830 H   0  0  0  0  0  0  0  0  0  0  0  0
  -20.8090  -28.8110  -10.5920 C   0  0  0  0  0  0  0  0  0  0  0  0
  -19.3130  -28.4920  -10.7890 C   0  0  0  0  0  0  0  0  0  0  0  0
  -17.8020  -27.4230   -8.2830 N   0  0  0  0  0  0  0  0  0  0  0  0
  -16.5690  -27.0710   -7.8220 C   0  0  0  0  0  0  0  0  0  0  0  0
  -15.9500  -27.3280   -6.5930 C   0  0  0  0  0  0  0  0  0  0  0  0
  -14.6550  -26.8400   -6.3700 C   0  0  0  0  0  0  0  0  0  0  0  0
  -13.9950  -26.1150   -7.3490 C   0  0  0  0  0  0  0  0  0  0  0  0
  -14.6170  -25.8570   -8.5710 C   0  0  0  0  0  0  0  0  0  0  0  0
  -15.8980  -26.3500   -8.7850 C   0  0  0  0  0  0  0  0  0  0  0  0
  -16.5050  -25.6000  -11.0940 C   0  0  0  0  0  0  0  0  0  0  0  0
  -15.7040  -26.3960  -12.0920 C   0  0  0  0  0  0  0  0  0  0  0  0
  -14.3780  -26.0570  -12.3740 C   0  0  0  0  0  0  0  0  0  0  0  0
  -13.6400  -26.7670  -13.3160 C   0  0  0  0  0  0  0  0  0  0  0  0
  -14.2160  -27.8350  -13.9900 C   0  0  0  0  0  0  0  0  0  0  0  0
  -15.5360  -28.1780  -13.7190 C   0  0  0  0  0  0  0  0  0  0  0  0
  -16.2680  -27.4620  -12.7820 C   0  0  0  0  0  0  0  0  0  0  0  0
  1  2  1  0  0  0  0
  1 17  1  0  0  0  0
  2 11  2  0  0  0  0
  3  2  1  0  0  0  0
  4  3  1  0  0  0  0
  4  5  1  0  0  0  0
  5  6  1  0  0  0  0
  6  8  1  0  0  0  0
  6  7  1  0  0  0  0
  9  6  1  0  0  0  0
 10  9  1  0  0  0  0
 10  3  1  0  0  0  0
 11 12  2  0  0  0  0
 12 13  1  0  0  0  0
 13 14  1  0  0  0  0
 15 14  2  0  0  0  0
 16 15  1  0  0  0  0
 17 16  2  0  0  0  0
 17 12  1  0  0  0  0
 18  1  1  0  0  0  0
 19 18  1  0  0  0  0
 20 19  1  0  0  0  0
 21 20  2  0  0  0  0
 22 23  2  0  0  0  0
 22 21  1  0  0  0  0
 23 24  1  0  0  0  0
 24 19  2  0  0  0  0
M  END
>  <minimizedAffinity>
-7.72193861

$$$$

 OpenBabel12271914433D

 24 27  0  0  0  0  0  0  0  0999 V2000
  -16.7740  -27.6220   -9.3860 N   0  0  0  0  0  0  0  0  0  0  0  0
  -16.6410  -27.5220  -10.7580 C   0  0  0  0  0  0  0  0  0  0  0  0
  -17.6060  -27.9080  -11.6340 N   0  0  0  0  0  0  0  0  0  0  0  0
  -17.6440  -29.2880  -12.1460 C   0  0  0  0  0  0  0  0  0  0  0  0
  -17.0950  -29.4110  -13.5860 C   0  0  0  0  0  0  0  0  0  0  0  0
  -17.0830  -28.1070  -14.3100 N   0  0  0  0  0  0  0  0  0  0  0  0
  -16.2200  -27.6020  -14.0320 H   0  0  0  0  0  0  0  0  0  0  0  0
  -17.0280  -28.2620  -15.3140 H   0  0  0  0  0  0  0  0  0  0  0  0
  -18.2450  -27.2350  -13.9680 C   0  0  0  0  0  0  0  0  0  0  0  0
  -18.2530  -26.8760  -12.4670 C   0  0  0  0  0  0  0  0  0  0  0  0
  -15.4880  -26.9460  -11.0330 N   0  0  0  0  0  0  0  0  0  0  0  0
  -14.8680  -26.6760   -9.8500 C   0  0  0  0  0  0  0  0  0  0  0  0
  -13.6350  -26.0660   -9.5890 C   0  0  0  0  0  0  0  0  0  0  0  0
  -13.2230  -25.9110   -8.2580 C   0  0  0  0  0  0  0  0  0  0  0  0
  -14.0220  -26.3520   -7.2150 C   0  0  0  0  0  0  0  0  0  0  0  0
  -15.2470  -26.9630   -7.4800 C   0  0  0  0  0  0  0  0  0  0  0  0
  -15.6500  -27.1070   -8.8010 C   0  0  0  0  0  0  0  0  0  0  0  0
  -17.8750  -28.2460   -8.6830 C   0  0  0  0  0  0  0  0  0  0  0  0
  -18.9250  -27.2740   -8.2100 C   0  0  0  0  0  0  0  0  0  0  0  0
  -18.8220  -26.6680   -6.9560 C   0  0  0  0  0  0  0  0  0  0  0  0
  -19.8020  -25.7920   -6.4970 C   0  0  0  0  0  0  0  0  0  0  0  0
  -20.9020  -25.5020   -7.2930 C   0  0  0  0  0  0  0  0  0  0  0  0
  -21.0160  -26.1030   -8.5420 C   0  0  0  0  0  0  0  0  0  0  0  0
  -20.0370  -26.9790   -8.9910 C   0  0  0  0  0  0  0  0  0  0  0  0
  1 17  1  0  0  0  0
  1 18  1  0  0  0  0
  2  1  1  0  0  0  0
  3  2  1  0  0  0  0
  4  3  1  0  0  0  0
  5  4  1  0  0  0  0
  6  7  1  0  0  0  0
  6  9  1  0  0  0  0
  6  5  1  0  0  0  0
  8  6  1  0  0  0  0
  9 10  1  0  0  0  0
 10  3  1  0  0  0  0
 11  2  2  0  0  0  0
 11 12  2  0  0  0  0
 12 13  1  0  0  0  0
 12 17  1  0  0  0  0
 13 14  1  0  0  0  0
 14 15  2  0  0  0  0
 16 15  1  0  0  0  0
 17 16  2  0  0  0  0
 18 19  1  0  0  0  0
 19 20  2  0  0  0  0
 20 21  1  0  0  0  0
 22 21  2  0  0  0  0
 23 22  1  0  0  0  0
 24 23  2  0  0  0  0
 24 19  1  0  0  0  0
M  END
>  <minimizedAffinity>
-7.70036888

$$$$

 OpenBabel12271914433D

 24 27  0  0  0  0  0  0  0  0999 V2000
  -15.9230  -26.3660  -11.9180 N   0  0  0  0  0  0  0  0  0  0  0  0
  -17.2550  -26.7350  -11.8910 C   0  0  0  0  0  0  0  0  0  0  0  0
  -18.1910  -26.1060  -11.1320 N   0  0  0  0  0  0  0  0  0  0  0  0
  -18.4600  -26.5510   -9.7540 C   0  0  0  0  0  0  0  0  0  0  0  0
  -19.7550  -27.3860   -9.6320 C   0  0  0  0  0  0  0  0  0  0  0  0
  -20.6800  -27.1830  -10.7850 N   0  0  0  0  0  0  0  0  0  0  0  0
  -20.3620  -27.8010  -11.5550 H   0  0  0  0  0  0  0  0  0  0  0  0
  -21.6220  -27.4760  -10.5370 H   0  0  0  0  0  0  0  0  0  0  0  0
  -20.6760  -25.7820  -11.3010 C   0  0  0  0  0  0  0  0  0  0  0  0
  -19.2770  -25.3790  -11.8150 C   0  0  0  0  0  0  0  0  0  0  0  0
  -17.4420  -27.7160  -12.7500 N   0  0  0  0  0  0  0  0  0  0  0  0
  -16.2410  -27.9920  -13.3320 C   0  0  0  0  0  0  0  0  0  0  0  0
  -15.9000  -28.9330  -14.3110 C   0  0  0  0  0  0  0  0  0  0  0  0
  -14.5680  -29.0150  -14.7390 C   0  0  0  0  0  0  0  0  0  0  0  0
  -13.6020  -28.1780  -14.2040 C   0  0  0  0  0  0  0  0  0  0  0  0
  -13.9440  -27.2450  -13.2260 C   0  0  0  0  0  0  0  0  0  0  0  0
  -15.2680  -27.1670  -12.8120 C   0  0  0  0  0  0  0  0  0  0  0  0
  -15.3030  -25.3630  -11.0790 C   0  0  0  0  0  0  0  0  0  0  0  0
  -14.9510  -25.8550   -9.6990 C   0  0  0  0  0  0  0  0  0  0  0  0
  -14.2550  -27.0530   -9.5260 C   0  0  0  0  0  0  0  0  0  0  0  0
  -13.9520  -27.5320   -8.2550 C   0  0  0  0  0  0  0  0  0  0  0  0
  -14.3370  -26.8120   -7.1310 C   0  0  0  0  0  0  0  0  0  0  0  0
  -15.0340  -25.6210   -7.2930 C   0  0  0  0  0  0  0  0  0  0  0  0
  -15.3370  -25.1510   -8.5640 C   0  0  0  0  0  0  0  0  0  0  0  0
  1  2  1  0  0  0  0
  1 18  1  0  0  0  0
  2  3  1  0  0  0  0
  3  4  1  0  0  0  0
  4  5  1  0  0  0  0
  6  8  1  0  0  0  0
  6  5  1  0  0  0  0
  7  6  1  0  0  0  0
  9  6  1  0  0  0  0
 10  9  1  0  0  0  0
 10  3  1  0  0  0  0
 11  2  2  0  0  0  0
 12 17  1  0  0  0  0
 12 11  2  0  0  0  0
 13 12  1  0  0  0  0
 14 13  1  0  0  0  0
 14 15  2  0  0  0  0
 15 16  1  0  0  0  0
 16 17  2  0  0  0  0
 17  1  1  0  0  0  0
 18 19  1  0  0  0  0
 19 20  2  0  0  0  0
 19 24  1  0  0  0  0
 20 21  1  0  0  0  0
 21 22  2  0  0  0  0
 23 22  1  0  0  0  0
 24 23  2  0  0  0  0
M  END
>  <minimizedAffinity>
-7.66499329

$$$$

 OpenBabel12271914433D

 24 27  0  0  0  0  0  0  0  0999 V2000
  -17.9930  -27.5400   -8.6860 N   0  0  0  0  0  0  0  0  0  0  0  0
  -19.2700  -27.2090   -9.0980 C   0  0  0  0  0  0  0  0  0  0  0  0
  -19.7620  -27.5110  -10.3290 N   0  0  0  0  0  0  0  0  0  0  0  0
  -19.5950  -26.5750  -11.4530 C   0  0  0  0  0  0  0  0  0  0  0  0
  -20.8800  -25.7760  -11.7680 C   0  0  0  0  0  0  0  0  0  0  0  0
  -22.1070  -26.4210  -11.2160 N   0  0  0  0  0  0  0  0  0  0  0  0
  -22.1870  -26.1420  -10.2200 H   0  0  0  0  0  0  0  0  0  0  0  0
  -22.9340  -26.0690  -11.6920 H   0  0  0  0  0  0  0  0  0  0  0  0
  -22.0580  -27.9130  -11.2640 C   0  0  0  0  0  0  0  0  0  0  0  0
  -20.8860  -28.4610  -10.4230 C   0  0  0  0  0  0  0  0  0  0  0  0
  -19.9050  -26.6370   -8.0950 N   0  0  0  0  0  0  0  0  0  0  0  0
  -19.0490  -26.5890   -7.0360 C   0  0  0  0  0  0  0  0  0  0  0  0
  -19.2340  -26.0920   -5.7400 C   0  0  0  0  0  0  0  0  0  0  0  0
  -18.1710  -26.1610   -4.8290 C   0  0  0  0  0  0  0  0  0  0  0  0
  -16.9560  -26.7130   -5.2020 C   0  0  0  0  0  0  0  0  0  0  0  0
  -16.7740  -27.2030   -6.4950 C   0  0  0  0  0  0  0  0  0  0  0  0
  -17.8350  -27.1360   -7.3890 C   0  0  0  0  0  0  0  0  0  0  0  0
  -16.9620  -28.1340   -9.5110 C   0  0  0  0  0  0  0  0  0  0  0  0
  -15.8410  -27.1900   -9.8590 C   0  0  0  0  0  0  0  0  0  0  0  0
  -14.5910  -27.3110   -9.2480 C   0  0  0  0  0  0  0  0  0  0  0  0
  -13.5580  -26.4260   -9.5410 C   0  0  0  0  0  0  0  0  0  0  0  0
  -13.7580  -25.4030  -10.4580 C   0  0  0  0  0  0  0  0  0  0  0  0
  -15.0000  -25.2710  -11.0690 C   0  0  0  0  0  0  0  0  0  0  0  0
  -16.0270  -26.1550  -10.7690 C   0  0  0  0  0  0  0  0  0  0  0  0
  1 17  1  0  0  0  0
  2  1  1  0  0  0  0
  2 11  2  0  0  0  0
  3  2  1  0  0  0  0
  4  3  1  0  0  0  0
  5  4  1  0  0  0  0
  5  6  1  0  0  0  0
  6  7  1  0  0  0  0
  8  6  1  0  0  0  0
  9  6  1  0  0  0  0
  9 10  1  0  0  0  0
 10  3  1  0  0  0  0
 11 12  2  0  0  0  0
 12 13  1  0  0  0  0
 13 14  1  0  0  0  0
 15 14  2  0  0  0  0
 16 15  1  0  0  0  0
 17 12  1  0  0  0  0
 17 16  2  0  0  0  0
 18  1  1  0  0  0  0
 19 18  1  0  0  0  0
 19 20  2  0  0  0  0
 21 20  1  0  0  0  0
 22 21  2  0  0  0  0
 23 24  2  0  0  0  0
 23 22  1  0  0  0  0
 24 19  1  0  0  0  0
M  END
>  <minimizedAffinity>
-7.60456276

$$$$

 OpenBabel12271914433D

 24 27  0  0  0  0  0  0  0  0999 V2000
  -17.8650  -27.1740   -8.9930 N   0  0  0  0  0  0  0  0  0  0  0  0
  -17.2800  -26.8850  -10.2110 C   0  0  0  0  0  0  0  0  0  0  0  0
  -17.9510  -26.9200  -11.3920 N   0  0  0  0  0  0  0  0  0  0  0  0
  -18.0170  -28.1630  -12.1780 C   0  0  0  0  0  0  0  0  0  0  0  0
  -17.0530  -28.1640  -13.3860 C   0  0  0  0  0  0  0  0  0  0  0  0
  -16.6180  -26.7910  -13.7750 N   0  0  0  0  0  0  0  0  0  0  0  0
  -15.8300  -26.5230  -13.1560 H   0  0  0  0  0  0  0  0  0  0  0  0
  -16.2620  -26.7910  -14.7280 H   0  0  0  0  0  0  0  0  0  0  0  0
  -17.6910  -25.7660  -13.6080 C   0  0  0  0  0  0  0  0  0  0  0  0
  -18.1360  -25.6590  -12.1340 C   0  0  0  0  0  0  0  0  0  0  0  0
  -16.0300  -26.5190  -10.0060 N   0  0  0  0  0  0  0  0  0  0  0  0
  -15.7970  -26.5740   -8.6640 C   0  0  0  0  0  0  0  0  0  0  0  0
  -14.6430  -26.2780   -7.9290 C   0  0  0  0  0  0  0  0  0  0  0  0
  -14.6700  -26.4250   -6.5360 C   0  0  0  0  0  0  0  0  0  0  0  0
  -15.8190  -26.8560   -5.8930 C   0  0  0  0  0  0  0  0  0  0  0  0
  -16.9660  -27.1540   -6.6280 C   0  0  0  0  0  0  0  0  0  0  0  0
  -16.9320  -26.9990   -8.0090 C   0  0  0  0  0  0  0  0  0  0  0  0
  -19.2130  -27.6650   -8.7940 C   0  0  0  0  0  0  0  0  0  0  0  0
  -20.2460  -26.5750   -8.6740 C   0  0  0  0  0  0  0  0  0  0  0  0
  -20.4740  -25.9400   -7.4520 C   0  0  0  0  0  0  0  0  0  0  0  0
  -21.4470  -24.9530   -7.3240 C   0  0  0  0  0  0  0  0  0  0  0  0
  -22.2080  -24.5810   -8.4240 C   0  0  0  0  0  0  0  0  0  0  0  0
  -21.9920  -25.2100   -9.6440 C   0  0  0  0  0  0  0  0  0  0  0  0
  -21.0230  -26.1970   -9.7640 C   0  0  0  0  0  0  0  0  0  0  0  0
  1 18  1  0  0  0  0
  1 17  1  0  0  0  0
  2 11  2  0  0  0  0
  2  1  1  0  0  0  0
  3  2  1  0  0  0  0
  4  3  1  0  0  0  0
  5  4  1  0  0  0  0
  6  9  1  0  0  0  0
  6  5  1  0  0  0  0
  6  7  1  0  0  0  0
  8  6  1  0  0  0  0
  9 10  1  0  0  0  0
 10  3  1  0  0  0  0
 11 12  2  0  0  0  0
 12 17  1  0  0  0  0
 12 13  1  0  0  0  0
 13 14  1  0  0  0  0
 14 15  2  0  0  0  0
 16 15  1  0  0  0  0
 17 16  2  0  0  0  0
 18 19  1  0  0  0  0
 19 20  2  0  0  0  0
 20 21  1  0  0  0  0
 22 21  2  0  0  0  0
 23 22  1  0  0  0  0
 24 23  2  0  0  0  0
 24 19  1  0  0  0  0
M  END
>  <minimizedAffinity>
-7.44266415

$$$$

 OpenBabel12271914433D

 24 27  0  0  0  0  0  0  0  0999 V2000
  -26.0040  -25.1010   -2.8500 N   0  0  0  0  0  0  0  0  0  0  0  0
  -25.5740  -24.7660   -4.1200 C   0  0  0  0  0  0  0  0  0  0  0  0
  -25.6140  -25.6230   -5.1740 N   0  0  0  0  0  0  0  0  0  0  0  0
  -24.4730  -26.5090   -5.4620 C   0  0  0  0  0  0  0  0  0  0  0  0
  -23.6050  -26.0100   -6.6390 C   0  0  0  0  0  0  0  0  0  0  0  0
  -24.3250  -25.0400   -7.5140 N   0  0  0  0  0  0  0  0  0  0  0  0
  -24.2510  -24.1040   -7.0720 H   0  0  0  0  0  0  0  0  0  0  0  0
  -23.8700  -24.9780   -8.4210 H   0  0  0  0  0  0  0  0  0  0  0  0
  -25.7770  -25.3530   -7.6660 C   0  0  0  0  0  0  0  0  0  0  0  0
  -26.5050  -25.3050   -6.3050 C   0  0  0  0  0  0  0  0  0  0  0  0
  -25.2050  -23.5010   -4.1240 N   0  0  0  0  0  0  0  0  0  0  0  0
  -25.3860  -23.0120   -2.8650 C   0  0  0  0  0  0  0  0  0  0  0  0
  -25.1570  -21.7320   -2.3450 C   0  0  0  0  0  0  0  0  0  0  0  0
  -25.4270  -21.4920   -0.9910 C   0  0  0  0  0  0  0  0  0  0  0  0
  -25.9150  -22.5020   -0.1780 C   0  0  0  0  0  0  0  0  0  0  0  0
  -26.1370  -23.7770   -0.6980 C   0  0  0  0  0  0  0  0  0  0  0  0
  -25.8720  -24.0050   -2.0430 C   0  0  0  0  0  0  0  0  0  0  0  0
  -26.4380  -26.4130   -2.4190 C   0  0  0  0  0  0  0  0  0  0  0  0
  -27.9330  -26.6030   -2.4590 C   0  0  0  0  0  0  0  0  0  0  0  0
  -28.7170  -26.3310   -1.3360 C   0  0  0  0  0  0  0  0  0  0  0  0
  -30.0940  -26.5320   -1.3540 C   0  0  0  0  0  0  0  0  0  0  0  0
  -30.7120  -27.0060   -2.5030 C   0  0  0  0  0  0  0  0  0  0  0  0
  -29.9400  -27.2840   -3.6250 C   0  0  0  0  0  0  0  0  0  0  0  0
  -28.5660  -27.0850   -3.5990 C   0  0  0  0  0  0  0  0  0  0  0  0
  1 18  1  0  0  0  0
  1 17  1  0  0  0  0
  2  1  1  0  0  0  0
  3  2  1  0  0  0  0
  4  3  1  0  0  0  0
  5  4  1  0  0  0  0
  6  7  1  0  0  0  0
  6  5  1  0  0  0  0
  8  6  1  0  0  0  0
  9  6  1  0  0  0  0
  9 10  1  0  0  0  0
 10  3  1  0  0  0  0
 11  2  2  0  0  0  0
 11 12  2  0  0  0  0
 12 13  1  0  0  0  0
 12 17  1  0  0  0  0
 13 14  1  0  0  0  0
 14 15  2  0  0  0  0
 16 15  1  0  0  0  0
 17 16  2  0  0  0  0
 19 18  1  0  0  0  0
 19 20  2  0  0  0  0
 21 20  1  0  0  0  0
 22 21  2  0  0  0  0
 23 24  2  0  0  0  0
 23 22  1  0  0  0  0
 24 19  1  0  0  0  0
M  END
>  <minimizedAffinity>
-7.39919233

$$$$

 OpenBabel12271914433D

 24 27  0  0  0  0  0  0  0  0999 V2000
  -16.0800  -26.6540  -12.2130 N   0  0  0  0  0  0  0  0  0  0  0  0
  -16.8700  -27.7830  -12.0980 C   0  0  0  0  0  0  0  0  0  0  0  0
  -17.8680  -27.9070  -11.1840 N   0  0  0  0  0  0  0  0  0  0  0  0
  -17.5940  -28.4580   -9.8460 C   0  0  0  0  0  0  0  0  0  0  0  0
  -18.0510  -29.9270   -9.6930 C   0  0  0  0  0  0  0  0  0  0  0  0
  -19.0590  -30.3240  -10.7190 N   0  0  0  0  0  0  0  0  0  0  0  0
  -18.5440  -30.5820  -11.5820 H   0  0  0  0  0  0  0  0  0  0  0  0
  -19.5640  -31.1530  -10.4140 H   0  0  0  0  0  0  0  0  0  0  0  0
  -20.0050  -29.2230  -11.0700 C   0  0  0  0  0  0  0  0  0  0  0  0
  -19.2570  -28.0140  -11.6700 C   0  0  0  0  0  0  0  0  0  0  0  0
  -16.5300  -28.6380  -13.0410 N   0  0  0  0  0  0  0  0  0  0  0  0
  -15.5210  -28.0760  -13.7660 C   0  0  0  0  0  0  0  0  0  0  0  0
  -14.8180  -28.5640  -14.8740 C   0  0  0  0  0  0  0  0  0  0  0  0
  -13.8070  -27.7730  -15.4370 C   0  0  0  0  0  0  0  0  0  0  0  0
  -13.5070  -26.5290  -14.9080 C   0  0  0  0  0  0  0  0  0  0  0  0
  -14.2060  -26.0480  -13.8010 C   0  0  0  0  0  0  0  0  0  0  0  0
  -15.2110  -26.8360  -13.2530 C   0  0  0  0  0  0  0  0  0  0  0  0
  -16.1040  -25.5070  -11.3310 C   0  0  0  0  0  0  0  0  0  0  0  0
  -15.2740  -25.6790  -10.0850 C   0  0  0  0  0  0  0  0  0  0  0  0
  -15.8160  -25.4120   -8.8260 C   0  0  0  0  0  0  0  0  0  0  0  0
  -15.0480  -25.5380   -7.6710 C   0  0  0  0  0  0  0  0  0  0  0  0
  -13.7230  -25.9420   -7.7590 C   0  0  0  0  0  0  0  0  0  0  0  0
  -13.1740  -26.2070   -9.0080 C   0  0  0  0  0  0  0  0  0  0  0  0
  -13.9430  -26.0740  -10.1560 C   0  0  0  0  0  0  0  0  0  0  0  0
  1  2  1  0  0  0  0
  1 18  1  0  0  0  0
  2  3  1  0  0  0  0
  3  4  1  0  0  0  0
  4  5  1  0  0  0  0
  6  8  1  0  0  0  0
  6  5  1  0  0  0  0
  7  6  1  0  0  0  0
  9  6  1  0  0  0  0
 10  3  1  0  0  0  0
 10  9  1  0  0  0  0
 11  2  2  0  0  0  0
 12 17  1  0  0  0  0
 12 11  2  0  0  0  0
 13 12  1  0  0  0  0
 14 15  2  0  0  0  0
 14 13  1  0  0  0  0
 15 16  1  0  0  0  0
 16 17  2  0  0  0  0
 17  1  1  0  0  0  0
 18 19  1  0  0  0  0
 19 20  1  0  0  0  0
 20 21  2  0  0  0  0
 22 21  1  0  0  0  0
 23 22  2  0  0  0  0
 24 19  2  0  0  0  0
 24 23  1  0  0  0  0
M  END
>  <minimizedAffinity>
-7.39861393

$$$$

 OpenBabel12271914433D

 24 27  0  0  0  0  0  0  0  0999 V2000
  -15.8770  -27.2020  -10.1030 N   0  0  0  0  0  0  0  0  0  0  0  0
  -16.5800  -27.3130  -11.2870 C   0  0  0  0  0  0  0  0  0  0  0  0
  -17.8190  -27.8660  -11.3730 N   0  0  0  0  0  0  0  0  0  0  0  0
  -17.9800  -29.3090  -11.6150 C   0  0  0  0  0  0  0  0  0  0  0  0
  -18.3600  -29.6370  -13.0770 C   0  0  0  0  0  0  0  0  0  0  0  0
  -18.9310  -28.4620  -13.7990 N   0  0  0  0  0  0  0  0  0  0  0  0
  -18.1370  -27.8890  -14.1420 H   0  0  0  0  0  0  0  0  0  0  0  0
  -19.4510  -28.7700  -14.6160 H   0  0  0  0  0  0  0  0  0  0  0  0
  -19.7730  -27.5900  -12.9270 C   0  0  0  0  0  0  0  0  0  0  0  0
  -18.9490  -27.0020  -11.7630 C   0  0  0  0  0  0  0  0  0  0  0  0
  -15.8830  -26.7460  -12.2510 N   0  0  0  0  0  0  0  0  0  0  0  0
  -14.7280  -26.2720  -11.7030 C   0  0  0  0  0  0  0  0  0  0  0  0
  -13.6600  -25.5840  -12.2900 C   0  0  0  0  0  0  0  0  0  0  0  0
  -12.5730  -25.2080  -11.4880 C   0  0  0  0  0  0  0  0  0  0  0  0
  -12.5550  -25.5090  -10.1360 C   0  0  0  0  0  0  0  0  0  0  0  0
  -13.6200  -26.1980   -9.5560 C   0  0  0  0  0  0  0  0  0  0  0  0
  -14.6950  -26.5620  -10.3570 C   0  0  0  0  0  0  0  0  0  0  0  0
  -16.2770  -27.7480   -8.8230 C   0  0  0  0  0  0  0  0  0  0  0  0
  -17.1530  -26.8260   -8.0150 C   0  0  0  0  0  0  0  0  0  0  0  0
  -16.6250  -25.6750   -7.4260 C   0  0  0  0  0  0  0  0  0  0  0  0
  -17.4190  -24.8330   -6.6530 C   0  0  0  0  0  0  0  0  0  0  0  0
  -18.7620  -25.1270   -6.4610 C   0  0  0  0  0  0  0  0  0  0  0  0
  -19.2970  -26.2720   -7.0390 C   0  0  0  0  0  0  0  0  0  0  0  0
  -18.4980  -27.1110   -7.8060 C   0  0  0  0  0  0  0  0  0  0  0  0
  1 18  1  0  0  0  0
  2  1  1  0  0  0  0
  3  2  1  0  0  0  0
  4  3  1  0  0  0  0
  5  4  1  0  0  0  0
  6  5  1  0  0  0  0
  6  9  1  0  0  0  0
  7  6  1  0  0  0  0
  8  6  1  0  0  0  0
  9 10  1  0  0  0  0
 10  3  1  0  0  0  0
 11 12  2  0  0  0  0
 11  2  2  0  0  0  0
 12 17  1  0  0  0  0
 13 12  1  0  0  0  0
 13 14  1  0  0  0  0
 14 15  2  0  0  0  0
 15 16  1  0  0  0  0
 17  1  1  0  0  0  0
 17 16  2  0  0  0  0
 18 19  1  0  0  0  0
 19 24  2  0  0  0  0
 19 20  1  0  0  0  0
 20 21  2  0  0  0  0
 21 22  1  0  0  0  0
 23 22  2  0  0  0  0
 24 23  1  0  0  0  0
M  END
>  <minimizedAffinity>
-7.2448597

$$$$
