
 OpenBabel12271914433D

 30 33  0  0  1  0  0  0  0  0999 V2000
  -14.6690  -25.7880  -11.5470 C   0  0  1  0  0  0  0  0  0  0  0  0
  -13.2850  -25.5700  -11.9360 N   0  0  0  0  0  0  0  0  0  0  0  0
  -12.6540  -26.0240  -11.2730 H   0  0  0  0  0  0  0  0  0  0  0  0
  -13.0100  -26.2540  -13.1530 O   0  0  0  0  0  0  0  0  0  0  0  0
  -14.2050  -26.7670  -13.6820 C   0  0  2  0  0  0  0  0  0  0  0  0
  -14.0060  -28.1750  -14.2340 C   0  0  1  0  0  0  0  0  0  0  0  0
  -14.3350  -28.1910  -15.7260 C   0  0  2  0  0  0  0  0  0  0  0  0
  -13.6290  -27.0140  -16.3970 C   0  0  1  0  0  0  0  0  0  0  0  0
  -14.1290  -25.6910  -15.8020 C   0  0  2  0  0  0  0  0  0  0  0  0
  -14.8320  -25.8710  -14.5850 O   0  0  0  0  0  0  0  0  0  0  0  0
  -15.1550  -26.8370  -12.5150 C   0  0  0  0  0  0  0  0  0  0  0  0
  -14.8070  -26.1960  -10.0960 C   0  0  0  0  0  0  0  0  0  0  0  0
  -13.7440  -26.8460   -9.4670 C   0  0  0  0  0  0  0  0  0  0  0  0
  -13.8300  -27.1870   -8.1280 C   0  0  0  0  0  0  0  0  0  0  0  0
  -14.9640  -26.8930   -7.3770 C   0  0  0  0  0  0  0  0  0  0  0  0
  -15.0580  -27.2210   -6.0280 C   0  0  0  0  0  0  0  0  0  0  0  0
  -16.2020  -26.9100   -5.3020 C   0  0  0  0  0  0  0  0  0  0  0  0
  -17.2720  -26.2710   -5.9070 C   0  0  0  0  0  0  0  0  0  0  0  0
  -17.1820  -25.9400   -7.2500 C   0  0  0  0  0  0  0  0  0  0  0  0
  -16.0370  -26.2440   -7.9930 C   0  0  0  0  0  0  0  0  0  0  0  0
  -15.9310  -25.9030   -9.3330 C   0  0  0  0  0  0  0  0  0  0  0  0
  -15.7520  -28.1310  -15.9370 O   0  0  0  0  0  0  0  0  0  0  0  0
  -16.2050  -27.8860  -15.1030 H   0  0  0  0  0  0  0  0  0  0  0  0
  -12.6520  -28.6630  -14.0200 O   0  0  0  0  0  0  0  0  0  0  0  0
  -12.6820  -29.6300  -14.0530 H   0  0  0  0  0  0  0  0  0  0  0  0
  -12.2230  -27.1060  -16.1440 O   0  0  0  0  0  0  0  0  0  0  0  0
  -11.9130  -28.0160  -16.2880 H   0  0  0  0  0  0  0  0  0  0  0  0
  -15.1110  -25.0030  -16.7560 C   0  0  0  0  0  0  0  0  0  0  0  0
  -16.4560  -25.4660  -16.5770 O   0  0  0  0  0  0  0  0  0  0  0  0
  -16.9010  -24.8930  -15.9180 H   0  0  0  0  0  0  0  0  0  0  0  0
  1 12  1  1  0  0  0
  2  1  1  0  0  0  0
  2  3  1  0  0  0  0
  4  2  1  0  0  0  0
  5  4  1  0  0  0  0
  5 11  1  1  0  0  0
  6 24  1  0  0  0  0
  6  5  1  6  0  0  0
  7 22  1  1  0  0  0
  7  6  1  0  0  0  0
  8 26  1  1  0  0  0
  8  9  1  0  0  0  0
  8  7  1  0  0  0  0
  9 28  1  6  0  0  0
  9 10  1  0  0  0  0
 10  5  1  0  0  0  0
 11  1  1  0  0  0  0
 12 13  2  0  0  0  0
 12 21  1  0  0  0  0
 13 14  1  0  0  0  0
 14 15  2  0  0  0  0
 15 16  1  0  0  0  0
 16 17  2  0  0  0  0
 18 17  1  0  0  0  0
 19 18  2  0  0  0  0
 20 15  1  0  0  0  0
 20 19  1  0  0  0  0
 21 20  2  0  0  0  0
 22 23  1  0  0  0  0
 25 24  1  0  0  0  0
 27 26  1  0  0  0  0
 28 29  1  0  0  0  0
 29 30  1  0  0  0  0
M  END
>  <minimizedAffinity>
-9.15988445

$$$$

 OpenBabel12271914433D

 30 33  0  0  1  0  0  0  0  0999 V2000
  -19.2360  -25.8060   -6.5530 C   0  0  1  0  0  0  0  0  0  0  0  0
  -19.6940  -24.4400   -6.7430 N   0  0  0  0  0  0  0  0  0  0  0  0
  -19.0350  -23.9230   -7.3270 H   0  0  0  0  0  0  0  0  0  0  0  0
  -20.8840  -24.4310   -7.5220 O   0  0  0  0  0  0  0  0  0  0  0  0
  -21.3340  -25.7490   -7.7040 C   0  0  2  0  0  0  0  0  0  0  0  0
  -21.8190  -25.9750   -9.1310 C   0  0  1  0  0  0  0  0  0  0  0  0
  -23.2940  -26.3790   -9.1130 C   0  0  2  0  0  0  0  0  0  0  0  0
  -24.0550  -25.4150   -8.2050 C   0  0  1  0  0  0  0  0  0  0  0  0
  -23.5090  -25.4970   -6.7740 C   0  0  2  0  0  0  0  0  0  0  0  0
  -22.2560  -26.1540   -6.7040 O   0  0  0  0  0  0  0  0  0  0  0  0
  -20.1260  -26.6160   -7.4620 C   0  0  0  0  0  0  0  0  0  0  0  0
  -17.7600  -25.9710   -6.8500 C   0  0  0  0  0  0  0  0  0  0  0  0
  -16.9230  -26.4990   -5.8660 C   0  0  0  0  0  0  0  0  0  0  0  0
  -15.5790  -26.7010   -6.1300 C   0  0  0  0  0  0  0  0  0  0  0  0
  -15.0300  -26.3900   -7.3700 C   0  0  0  0  0  0  0  0  0  0  0  0
  -13.6830  -26.5990   -7.6520 C   0  0  0  0  0  0  0  0  0  0  0  0
  -13.1630  -26.2820   -8.9020 C   0  0  0  0  0  0  0  0  0  0  0  0
  -13.9750  -25.7500   -9.8910 C   0  0  0  0  0  0  0  0  0  0  0  0
  -15.3170  -25.5430   -9.6160 C   0  0  0  0  0  0  0  0  0  0  0  0
  -15.8560  -25.8580   -8.3650 C   0  0  0  0  0  0  0  0  0  0  0  0
  -17.2000  -25.6690   -8.0850 C   0  0  0  0  0  0  0  0  0  0  0  0
  -23.4470  -27.7340   -8.6700 O   0  0  0  0  0  0  0  0  0  0  0  0
  -22.6080  -28.0550   -8.2780 H   0  0  0  0  0  0  0  0  0  0  0  0
  -21.6380  -24.7990   -9.9670 O   0  0  0  0  0  0  0  0  0  0  0  0
  -21.6190  -25.0960  -10.8890 H   0  0  0  0  0  0  0  0  0  0  0  0
  -23.8570  -24.0760   -8.6730 O   0  0  0  0  0  0  0  0  0  0  0  0
  -23.9670  -24.0370   -9.6380 H   0  0  0  0  0  0  0  0  0  0  0  0
  -24.4550  -26.3040   -5.8770 C   0  0  0  0  0  0  0  0  0  0  0  0
  -24.0500  -27.6730   -5.7540 O   0  0  0  0  0  0  0  0  0  0  0  0
  -23.4570  -27.7580   -4.9780 H   0  0  0  0  0  0  0  0  0  0  0  0
  1 12  1  6  0  0  0
  2  1  1  0  0  0  0
  3  2  1  0  0  0  0
  4  2  1  0  0  0  0
  5  4  1  0  0  0  0
  5 11  1  1  0  0  0
  5 10  1  0  0  0  0
  6  7  1  0  0  0  0
  6  5  1  1  0  0  0
  7 22  1  1  0  0  0
  7  8  1  0  0  0  0
  8 26  1  6  0  0  0
  8  9  1  0  0  0  0
  9 10  1  0  0  0  0
  9 28  1  1  0  0  0
 11  1  1  0  0  0  0
 12 13  2  0  0  0  0
 14 13  1  0  0  0  0
 15 14  2  0  0  0  0
 16 15  1  0  0  0  0
 17 16  2  0  0  0  0
 18 19  2  0  0  0  0
 18 17  1  0  0  0  0
 19 20  1  0  0  0  0
 20 21  2  0  0  0  0
 20 15  1  0  0  0  0
 21 12  1  0  0  0  0
 22 23  1  0  0  0  0
 24  6  1  0  0  0  0
 25 24  1  0  0  0  0
 27 26  1  0  0  0  0
 28 29  1  0  0  0  0
 29 30  1  0  0  0  0
M  END
>  <minimizedAffinity>
-9.05529118

$$$$

 OpenBabel12271914433D

 30 33  0  0  1  0  0  0  0  0999 V2000
  -15.2460  -25.4540  -11.8510 C   0  0  1  0  0  0  0  0  0  0  0  0
  -13.8010  -25.3820  -11.9890 N   0  0  0  0  0  0  0  0  0  0  0  0
  -13.3450  -25.8640  -11.2120 H   0  0  0  0  0  0  0  0  0  0  0  0
  -13.3830  -26.1370  -13.1210 O   0  0  0  0  0  0  0  0  0  0  0  0
  -14.5100  -26.5580  -13.8440 C   0  0  2  0  0  0  0  0  0  0  0  0
  -14.3560  -27.9990  -14.3180 C   0  0  1  0  0  0  0  0  0  0  0  0
  -14.4150  -28.0450  -15.8440 C   0  0  2  0  0  0  0  0  0  0  0  0
  -13.4890  -26.9670  -16.4040 C   0  0  1  0  0  0  0  0  0  0  0  0
  -13.9540  -25.5810  -15.9400 C   0  0  2  0  0  0  0  0  0  0  0  0
  -14.8750  -25.6450  -14.8660 O   0  0  0  0  0  0  0  0  0  0  0  0
  -15.6540  -26.4920  -12.8660 C   0  0  0  0  0  0  0  0  0  0  0  0
  -15.6780  -25.7880  -10.4390 C   0  0  0  0  0  0  0  0  0  0  0  0
  -17.0410  -25.8400  -10.1390 C   0  0  0  0  0  0  0  0  0  0  0  0
  -17.4600  -26.1880   -8.8670 C   0  0  0  0  0  0  0  0  0  0  0  0
  -16.5490  -26.4950   -7.8620 C   0  0  0  0  0  0  0  0  0  0  0  0
  -16.9590  -26.8560   -6.5810 C   0  0  0  0  0  0  0  0  0  0  0  0
  -16.0240  -27.1620   -5.5980 C   0  0  0  0  0  0  0  0  0  0  0  0
  -14.6670  -27.1100   -5.8730 C   0  0  0  0  0  0  0  0  0  0  0  0
  -14.2540  -26.7530   -7.1460 C   0  0  0  0  0  0  0  0  0  0  0  0
  -15.1810  -26.4450   -8.1460 C   0  0  0  0  0  0  0  0  0  0  0  0
  -14.7790  -26.1020   -9.4270 C   0  0  0  0  0  0  0  0  0  0  0  0
  -15.7600  -27.8630  -16.3080 O   0  0  0  0  0  0  0  0  0  0  0  0
  -16.3270  -27.5440  -15.5750 H   0  0  0  0  0  0  0  0  0  0  0  0
  -13.1160  -28.6020  -13.8520 O   0  0  0  0  0  0  0  0  0  0  0  0
  -13.2350  -29.5630  -13.8680 H   0  0  0  0  0  0  0  0  0  0  0  0
  -12.1660  -27.1790  -15.9000 O   0  0  0  0  0  0  0  0  0  0  0  0
  -11.9270  -28.1190  -15.9640 H   0  0  0  0  0  0  0  0  0  0  0  0
  -14.6790  -24.8440  -17.0720 C   0  0  0  0  0  0  0  0  0  0  0  0
  -16.0980  -25.0410  -17.0250 O   0  0  0  0  0  0  0  0  0  0  0  0
  -16.4970  -24.3280  -16.4840 H   0  0  0  0  0  0  0  0  0  0  0  0
  1 12  1  1  0  0  0
  2  1  1  0  0  0  0
  2  3  1  0  0  0  0
  4  2  1  0  0  0  0
  5  4  1  0  0  0  0
  5 11  1  1  0  0  0
  6 24  1  0  0  0  0
  6  5  1  6  0  0  0
  7 22  1  1  0  0  0
  7  6  1  0  0  0  0
  8  9  1  0  0  0  0
  8 26  1  1  0  0  0
  8  7  1  0  0  0  0
  9 28  1  6  0  0  0
  9 10  1  0  0  0  0
 10  5  1  0  0  0  0
 11  1  1  0  0  0  0
 12 13  2  0  0  0  0
 12 21  1  0  0  0  0
 13 14  1  0  0  0  0
 14 15  2  0  0  0  0
 15 16  1  0  0  0  0
 16 17  2  0  0  0  0
 18 17  1  0  0  0  0
 19 18  2  0  0  0  0
 20 15  1  0  0  0  0
 20 19  1  0  0  0  0
 21 20  2  0  0  0  0
 22 23  1  0  0  0  0
 25 24  1  0  0  0  0
 27 26  1  0  0  0  0
 28 29  1  0  0  0  0
 29 30  1  0  0  0  0
M  END
>  <minimizedAffinity>
-8.9631958

$$$$

 OpenBabel12271914433D

 30 33  0  0  1  0  0  0  0  0999 V2000
  -27.2200  -26.2960   -3.1480 C   0  0  1  0  0  0  0  0  0  0  0  0
  -28.3920  -26.7500   -3.8780 N   0  0  0  0  0  0  0  0  0  0  0  0
  -29.0540  -25.9820   -4.0000 H   0  0  0  0  0  0  0  0  0  0  0  0
  -28.0330  -27.0740   -5.2170 O   0  0  0  0  0  0  0  0  0  0  0  0
  -26.6360  -27.0270   -5.3520 C   0  0  2  0  0  0  0  0  0  0  0  0
  -26.2310  -26.3660   -6.6640 C   0  0  1  0  0  0  0  0  0  0  0  0
  -25.4250  -27.3550   -7.5070 C   0  0  2  0  0  0  0  0  0  0  0  0
  -26.1650  -28.6910   -7.5360 C   0  0  1  0  0  0  0  0  0  0  0  0
  -26.2930  -29.2530   -6.1150 C   0  0  2  0  0  0  0  0  0  0  0  0
  -26.0230  -28.2840   -5.1180 O   0  0  0  0  0  0  0  0  0  0  0  0
  -26.1590  -26.1660   -4.2110 C   0  0  0  0  0  0  0  0  0  0  0  0
  -27.4720  -25.0130   -2.3850 C   0  0  0  0  0  0  0  0  0  0  0  0
  -28.7400  -24.7750   -1.8530 C   0  0  0  0  0  0  0  0  0  0  0  0
  -28.9810  -23.6300   -1.1130 C   0  0  0  0  0  0  0  0  0  0  0  0
  -27.9780  -22.6950   -0.8790 C   0  0  0  0  0  0  0  0  0  0  0  0
  -28.2050  -21.5450   -0.1280 C   0  0  0  0  0  0  0  0  0  0  0  0
  -27.1820  -20.6300    0.0930 C   0  0  0  0  0  0  0  0  0  0  0  0
  -25.9170  -20.8430   -0.4320 C   0  0  0  0  0  0  0  0  0  0  0  0
  -25.6860  -21.9870   -1.1780 C   0  0  0  0  0  0  0  0  0  0  0  0
  -26.7040  -22.9180   -1.4080 C   0  0  0  0  0  0  0  0  0  0  0  0
  -26.4780  -24.0730   -2.1390 C   0  0  0  0  0  0  0  0  0  0  0  0
  -24.0990  -27.5100   -6.9840 O   0  0  0  0  0  0  0  0  0  0  0  0
  -24.0450  -27.1170   -6.0880 H   0  0  0  0  0  0  0  0  0  0  0  0
  -27.3790  -25.8920   -7.4200 O   0  0  0  0  0  0  0  0  0  0  0  0
  -27.0670  -25.2000   -8.0220 H   0  0  0  0  0  0  0  0  0  0  0  0
  -27.4860  -28.4830   -8.0460 O   0  0  0  0  0  0  0  0  0  0  0  0
  -27.4590  -27.9160   -8.8360 H   0  0  0  0  0  0  0  0  0  0  0  0
  -25.2830  -30.3830   -5.8850 C   0  0  0  0  0  0  0  0  0  0  0  0
  -24.2170  -29.9890   -5.0120 O   0  0  0  0  0  0  0  0  0  0  0  0
  -24.4680  -30.2060   -4.0900 H   0  0  0  0  0  0  0  0  0  0  0  0
  1 12  1  6  0  0  0
  2  1  1  0  0  0  0
  3  2  1  0  0  0  0
  4  2  1  0  0  0  0
  5  4  1  0  0  0  0
  5 10  1  0  0  0  0
  5 11  1  1  0  0  0
  6  5  1  1  0  0  0
  7 22  1  1  0  0  0
  7  6  1  0  0  0  0
  8 26  1  1  0  0  0
  8  7  1  0  0  0  0
  8  9  1  0  0  0  0
  9 28  1  6  0  0  0
  9 10  1  0  0  0  0
 11  1  1  0  0  0  0
 12 21  2  0  0  0  0
 12 13  1  0  0  0  0
 13 14  2  0  0  0  0
 14 15  1  0  0  0  0
 15 16  2  0  0  0  0
 16 17  1  0  0  0  0
 18 17  2  0  0  0  0
 19 18  1  0  0  0  0
 20 19  2  0  0  0  0
 20 15  1  0  0  0  0
 21 20  1  0  0  0  0
 22 23  1  0  0  0  0
 24  6  1  0  0  0  0
 25 24  1  0  0  0  0
 27 26  1  0  0  0  0
 28 29  1  0  0  0  0
 29 30  1  0  0  0  0
M  END
>  <minimizedAffinity>
-8.64040089

$$$$

 OpenBabel12271914433D

 30 33  0  0  1  0  0  0  0  0999 V2000
  -22.1050  -25.9780   -8.0520 C   0  0  1  0  0  0  0  0  0  0  0  0
  -22.8740  -27.1160   -8.5300 N   0  0  0  0  0  0  0  0  0  0  0  0
  -22.2990  -27.9600   -8.5250 H   0  0  0  0  0  0  0  0  0  0  0  0
  -23.9050  -27.4290   -7.6010 O   0  0  0  0  0  0  0  0  0  0  0  0
  -23.9650  -26.4320   -6.6140 C   0  0  2  0  0  0  0  0  0  0  0  0
  -24.1710  -27.0360   -5.2290 C   0  0  1  0  0  0  0  0  0  0  0  0
  -25.4760  -26.5120   -4.6310 C   0  0  2  0  0  0  0  0  0  0  0  0
  -26.5810  -26.6380   -5.6780 C   0  0  1  0  0  0  0  0  0  0  0  0
  -26.2370  -25.7940   -6.9120 C   0  0  2  0  0  0  0  0  0  0  0  0
  -24.8780  -25.3960   -6.9400 O   0  0  0  0  0  0  0  0  0  0  0  0
  -22.6170  -25.7590   -6.6500 C   0  0  0  0  0  0  0  0  0  0  0  0
  -20.6120  -26.2170   -8.1180 C   0  0  0  0  0  0  0  0  0  0  0  0
  -20.0170  -26.4720   -9.3550 C   0  0  0  0  0  0  0  0  0  0  0  0
  -18.6480  -26.6480   -9.4460 C   0  0  0  0  0  0  0  0  0  0  0  0
  -17.8310  -26.5750   -8.3210 C   0  0  0  0  0  0  0  0  0  0  0  0
  -16.4510  -26.7400   -8.4020 C   0  0  0  0  0  0  0  0  0  0  0  0
  -15.6610  -26.6570   -7.2610 C   0  0  0  0  0  0  0  0  0  0  0  0
  -16.2300  -26.4110   -6.0220 C   0  0  0  0  0  0  0  0  0  0  0  0
  -17.6030  -26.2440   -5.9380 C   0  0  0  0  0  0  0  0  0  0  0  0
  -18.4120  -26.3230   -7.0750 C   0  0  0  0  0  0  0  0  0  0  0  0
  -19.7840  -26.1420   -7.0040 C   0  0  0  0  0  0  0  0  0  0  0  0
  -25.3290  -25.1530   -4.1980 O   0  0  0  0  0  0  0  0  0  0  0  0
  -24.4990  -24.7750   -4.5550 H   0  0  0  0  0  0  0  0  0  0  0  0
  -24.1900  -28.4900   -5.2610 O   0  0  0  0  0  0  0  0  0  0  0  0
  -23.9660  -28.8040   -4.3720 H   0  0  0  0  0  0  0  0  0  0  0  0
  -26.6780  -28.0050   -6.0940 O   0  0  0  0  0  0  0  0  0  0  0  0
  -26.6590  -28.5950   -5.3220 H   0  0  0  0  0  0  0  0  0  0  0  0
  -27.0550  -24.4980   -6.9290 C   0  0  0  0  0  0  0  0  0  0  0  0
  -26.2380  -23.3390   -6.7170 O   0  0  0  0  0  0  0  0  0  0  0  0
  -25.9360  -23.0030   -7.5880 H   0  0  0  0  0  0  0  0  0  0  0  0
  1 12  1  1  0  0  0
  1 11  1  0  0  0  0
  2  3  1  0  0  0  0
  2  1  1  0  0  0  0
  2  4  1  0  0  0  0
  4  5  1  0  0  0  0
  5 11  1  1  0  0  0
  6  5  1  6  0  0  0
  6  7  1  0  0  0  0
  7 22  1  6  0  0  0
  8 26  1  6  0  0  0
  8  7  1  0  0  0  0
  9 28  1  1  0  0  0
  9  8  1  0  0  0  0
 10  9  1  0  0  0  0
 10  5  1  0  0  0  0
 12 21  2  0  0  0  0
 13 12  1  0  0  0  0
 14 13  2  0  0  0  0
 14 15  1  0  0  0  0
 15 20  1  0  0  0  0
 16 15  2  0  0  0  0
 16 17  1  0  0  0  0
 17 18  2  0  0  0  0
 18 19  1  0  0  0  0
 20 21  1  0  0  0  0
 20 19  2  0  0  0  0
 23 22  1  0  0  0  0
 24  6  1  0  0  0  0
 24 25  1  0  0  0  0
 26 27  1  0  0  0  0
 28 29  1  0  0  0  0
 30 29  1  0  0  0  0
M  END
>  <minimizedAffinity>
-8.63781738

$$$$

 OpenBabel12271914433D

 30 33  0  0  1  0  0  0  0  0999 V2000
  -14.9540  -25.5190  -11.1120 C   0  0  1  0  0  0  0  0  0  0  0  0
  -14.1070  -26.6910  -11.2670 N   0  0  0  0  0  0  0  0  0  0  0  0
  -14.3970  -27.4260  -10.6210 H   0  0  0  0  0  0  0  0  0  0  0  0
  -14.3270  -27.2820  -12.5420 O   0  0  0  0  0  0  0  0  0  0  0  0
  -15.1530  -26.4460  -13.3100 C   0  0  2  0  0  0  0  0  0  0  0  0
  -16.1930  -27.2540  -14.0800 C   0  0  1  0  0  0  0  0  0  0  0  0
  -16.0090  -27.0250  -15.5810 C   0  0  2  0  0  0  0  0  0  0  0  0
  -14.5290  -27.1850  -15.9230 C   0  0  1  0  0  0  0  0  0  0  0  0
  -13.6970  -26.1420  -15.1660 C   0  0  2  0  0  0  0  0  0  0  0  0
  -14.4160  -25.5340  -14.1080 O   0  0  0  0  0  0  0  0  0  0  0  0
  -15.8660  -25.5710  -12.3120 C   0  0  0  0  0  0  0  0  0  0  0  0
  -15.6950  -25.5090   -9.7920 C   0  0  0  0  0  0  0  0  0  0  0  0
  -15.0760  -24.9600   -8.6680 C   0  0  0  0  0  0  0  0  0  0  0  0
  -15.7510  -24.8980   -7.4610 C   0  0  0  0  0  0  0  0  0  0  0  0
  -17.0530  -25.3730   -7.3340 C   0  0  0  0  0  0  0  0  0  0  0  0
  -17.7460  -25.3070   -6.1290 C   0  0  0  0  0  0  0  0  0  0  0  0
  -19.0480  -25.7860   -6.0340 C   0  0  0  0  0  0  0  0  0  0  0  0
  -19.6800  -26.3410   -7.1350 C   0  0  0  0  0  0  0  0  0  0  0  0
  -18.9940  -26.4070   -8.3370 C   0  0  0  0  0  0  0  0  0  0  0  0
  -17.6860  -25.9280   -8.4500 C   0  0  0  0  0  0  0  0  0  0  0  0
  -16.9970  -25.9750   -9.6520 C   0  0  0  0  0  0  0  0  0  0  0  0
  -16.4910  -25.7290  -15.9620 O   0  0  0  0  0  0  0  0  0  0  0  0
  -16.6460  -25.1820  -15.1650 H   0  0  0  0  0  0  0  0  0  0  0  0
  -16.1170  -28.6750  -13.7830 O   0  0  0  0  0  0  0  0  0  0  0  0
  -16.9780  -29.0650  -13.9980 H   0  0  0  0  0  0  0  0  0  0  0  0
  -14.0900  -28.4830  -15.5080 O   0  0  0  0  0  0  0  0  0  0  0  0
  -14.7350  -29.1590  -15.7740 H   0  0  0  0  0  0  0  0  0  0  0  0
  -13.2790  -25.0000  -16.0990 C   0  0  0  0  0  0  0  0  0  0  0  0
  -13.8290  -25.1460  -17.4150 O   0  0  0  0  0  0  0  0  0  0  0  0
  -14.6910  -24.6810  -17.4500 H   0  0  0  0  0  0  0  0  0  0  0  0
  1 12  1  1  0  0  0
  2  1  1  0  0  0  0
  2  3  1  0  0  0  0
  4  2  1  0  0  0  0
  5  4  1  0  0  0  0
  5 11  1  1  0  0  0
  6 24  1  0  0  0  0
  6  5  1  1  0  0  0
  7 22  1  1  0  0  0
  7  6  1  0  0  0  0
  8  7  1  0  0  0  0
  8 26  1  1  0  0  0
  8  9  1  0  0  0  0
  9 28  1  6  0  0  0
  9 10  1  0  0  0  0
 10  5  1  0  0  0  0
 11  1  1  0  0  0  0
 12 21  2  0  0  0  0
 12 13  1  0  0  0  0
 13 14  2  0  0  0  0
 14 15  1  0  0  0  0
 15 16  2  0  0  0  0
 16 17  1  0  0  0  0
 18 17  2  0  0  0  0
 19 18  1  0  0  0  0
 20 19  2  0  0  0  0
 20 15  1  0  0  0  0
 21 20  1  0  0  0  0
 22 23  1  0  0  0  0
 25 24  1  0  0  0  0
 27 26  1  0  0  0  0
 29 28  1  0  0  0  0
 30 29  1  0  0  0  0
M  END
>  <minimizedAffinity>
-8.26398754

$$$$

 OpenBabel12271914433D

 30 33  0  0  1  0  0  0  0  0999 V2000
  -25.3240  -24.8820   -5.0680 C   0  0  1  0  0  0  0  0  0  0  0  0
  -24.4960  -26.0440   -4.7920 N   0  0  0  0  0  0  0  0  0  0  0  0
  -24.7640  -26.4680   -3.9030 H   0  0  0  0  0  0  0  0  0  0  0  0
  -24.7780  -27.0740   -5.7330 O   0  0  0  0  0  0  0  0  0  0  0  0
  -25.6300  -26.5760   -6.7320 C   0  0  2  0  0  0  0  0  0  0  0  0
  -26.7110  -27.5890   -7.0920 C   0  0  1  0  0  0  0  0  0  0  0  0
  -26.5920  -27.9590   -8.5710 C   0  0  2  0  0  0  0  0  0  0  0  0
  -25.1300  -28.2770   -8.8810 C   0  0  1  0  0  0  0  0  0  0  0  0
  -24.2550  -27.0450   -8.6150 C   0  0  2  0  0  0  0  0  0  0  0  0
  -24.9200  -26.0590   -7.8460 O   0  0  0  0  0  0  0  0  0  0  0  0
  -26.2880  -25.3660   -6.1210 C   0  0  0  0  0  0  0  0  0  0  0  0
  -26.0050  -24.3460   -3.8260 C   0  0  0  0  0  0  0  0  0  0  0  0
  -27.0670  -25.0610   -3.2700 C   0  0  0  0  0  0  0  0  0  0  0  0
  -27.6740  -24.6160   -2.1100 C   0  0  0  0  0  0  0  0  0  0  0  0
  -27.2490  -23.4560   -1.4680 C   0  0  0  0  0  0  0  0  0  0  0  0
  -27.8450  -23.0030   -0.2950 C   0  0  0  0  0  0  0  0  0  0  0  0
  -27.3960  -21.8430    0.3250 C   0  0  0  0  0  0  0  0  0  0  0  0
  -26.3480  -21.1130   -0.2130 C   0  0  0  0  0  0  0  0  0  0  0  0
  -25.7500  -21.5620   -1.3800 C   0  0  0  0  0  0  0  0  0  0  0  0
  -26.1890  -22.7270   -2.0150 C   0  0  0  0  0  0  0  0  0  0  0  0
  -25.5870  -23.1930   -3.1730 C   0  0  0  0  0  0  0  0  0  0  0  0
  -27.0770  -26.8970   -9.4040 O   0  0  0  0  0  0  0  0  0  0  0  0
  -27.1920  -26.0810   -8.8730 H   0  0  0  0  0  0  0  0  0  0  0  0
  -26.6350  -28.7900   -6.2740 O   0  0  0  0  0  0  0  0  0  0  0  0
  -27.5080  -29.2090   -6.2900 H   0  0  0  0  0  0  0  0  0  0  0  0
  -24.6860  -29.3260   -8.0150 O   0  0  0  0  0  0  0  0  0  0  0  0
  -25.3490  -30.0360   -7.9770 H   0  0  0  0  0  0  0  0  0  0  0  0
  -23.8680  -26.3600   -9.9310 C   0  0  0  0  0  0  0  0  0  0  0  0
  -24.6320  -26.8480  -11.0410 O   0  0  0  0  0  0  0  0  0  0  0  0
  -25.4330  -26.2910  -11.1420 H   0  0  0  0  0  0  0  0  0  0  0  0
  1  2  1  0  0  0  0
  1 12  1  1  0  0  0
  2  3  1  0  0  0  0
  4  2  1  0  0  0  0
  5 11  1  1  0  0  0
  5  4  1  0  0  0  0
  6  5  1  1  0  0  0
  6 24  1  0  0  0  0
  7 22  1  6  0  0  0
  7  6  1  0  0  0  0
  8  9  1  0  0  0  0
  8  7  1  0  0  0  0
  8 26  1  1  0  0  0
  9 28  1  6  0  0  0
  9 10  1  0  0  0  0
 10  5  1  0  0  0  0
 11  1  1  0  0  0  0
 12 13  2  0  0  0  0
 12 21  1  0  0  0  0
 13 14  1  0  0  0  0
 14 15  2  0  0  0  0
 15 16  1  0  0  0  0
 16 17  2  0  0  0  0
 18 17  1  0  0  0  0
 19 18  2  0  0  0  0
 20 15  1  0  0  0  0
 20 19  1  0  0  0  0
 21 20  2  0  0  0  0
 22 23  1  0  0  0  0
 25 24  1  0  0  0  0
 26 27  1  0  0  0  0
 29 28  1  0  0  0  0
 30 29  1  0  0  0  0
M  END
>  <minimizedAffinity>
-8.23453903

$$$$

 OpenBabel12271914433D

 30 33  0  0  1  0  0  0  0  0999 V2000
  -16.0960  -26.3390  -11.1700 C   0  0  1  0  0  0  0  0  0  0  0  0
  -15.7730  -27.6070  -10.5380 N   0  0  0  0  0  0  0  0  0  0  0  0
  -14.7950  -27.8490  -10.7050 H   0  0  0  0  0  0  0  0  0  0  0  0
  -15.8290  -27.4720   -9.1220 O   0  0  0  0  0  0  0  0  0  0  0  0
  -16.3520  -26.2120   -8.7920 C   0  0  2  0  0  0  0  0  0  0  0  0
  -15.5910  -25.5840   -7.6300 C   0  0  1  0  0  0  0  0  0  0  0  0
  -16.5490  -25.3420   -6.4630 C   0  0  2  0  0  0  0  0  0  0  0  0
  -17.3660  -26.6100   -6.2280 C   0  0  1  0  0  0  0  0  0  0  0  0
  -18.1940  -26.9430   -7.4770 C   0  0  2  0  0  0  0  0  0  0  0  0
  -17.7600  -26.2340   -8.6240 O   0  0  0  0  0  0  0  0  0  0  0  0
  -16.1420  -25.3640  -10.0200 C   0  0  0  0  0  0  0  0  0  0  0  0
  -15.1020  -25.9560  -12.2460 C   0  0  0  0  0  0  0  0  0  0  0  0
  -13.7870  -25.6620  -11.8840 C   0  0  0  0  0  0  0  0  0  0  0  0
  -12.8490  -25.3550  -12.8550 C   0  0  0  0  0  0  0  0  0  0  0  0
  -13.1850  -25.3330  -14.2050 C   0  0  0  0  0  0  0  0  0  0  0  0
  -12.2490  -25.0350  -15.1910 C   0  0  0  0  0  0  0  0  0  0  0  0
  -12.6140  -25.0250  -16.5330 C   0  0  0  0  0  0  0  0  0  0  0  0
  -13.9160  -25.3080  -16.9140 C   0  0  0  0  0  0  0  0  0  0  0  0
  -14.8500  -25.6070  -15.9360 C   0  0  0  0  0  0  0  0  0  0  0  0
  -14.4990  -25.6230  -14.5830 C   0  0  0  0  0  0  0  0  0  0  0  0
  -15.4230  -25.9360  -13.5980 C   0  0  0  0  0  0  0  0  0  0  0  0
  -17.4010  -24.2190   -6.7270 O   0  0  0  0  0  0  0  0  0  0  0  0
  -17.3400  -23.9680   -7.6720 H   0  0  0  0  0  0  0  0  0  0  0  0
  -14.4760  -26.4090   -7.1920 O   0  0  0  0  0  0  0  0  0  0  0  0
  -13.8490  -25.8320   -6.7330 H   0  0  0  0  0  0  0  0  0  0  0  0
  -16.4750  -27.7040   -5.9890 O   0  0  0  0  0  0  0  0  0  0  0  0
  -15.7790  -27.4420   -5.3630 H   0  0  0  0  0  0  0  0  0  0  0  0
  -19.6630  -26.5550   -7.2730 C   0  0  0  0  0  0  0  0  0  0  0  0
  -19.9380  -26.1620   -5.9220 O   0  0  0  0  0  0  0  0  0  0  0  0
  -19.8090  -25.1930   -5.8440 H   0  0  0  0  0  0  0  0  0  0  0  0
  1 12  1  6  0  0  0
  1  2  1  0  0  0  0
  1 11  1  0  0  0  0
  2  4  1  0  0  0  0
  3  2  1  0  0  0  0
  4  5  1  0  0  0  0
  5 11  1  6  0  0  0
  5 10  1  0  0  0  0
  6  5  1  6  0  0  0
  6 24  1  0  0  0  0
  6  7  1  0  0  0  0
  7 22  1  6  0  0  0
  7  8  1  0  0  0  0
  8 26  1  6  0  0  0
  9 28  1  1  0  0  0
  9  8  1  0  0  0  0
 10  9  1  0  0  0  0
 12 13  1  0  0  0  0
 14 13  2  0  0  0  0
 15 14  1  0  0  0  0
 16 15  2  0  0  0  0
 17 16  1  0  0  0  0
 18 17  2  0  0  0  0
 18 19  1  0  0  0  0
 19 20  2  0  0  0  0
 20 15  1  0  0  0  0
 20 21  1  0  0  0  0
 21 12  2  0  0  0  0
 23 22  1  0  0  0  0
 24 25  1  0  0  0  0
 26 27  1  0  0  0  0
 28 29  1  0  0  0  0
 29 30  1  0  0  0  0
M  END
>  <minimizedAffinity>
-8.15784645

$$$$

 OpenBabel12271914433D

 30 33  0  0  1  0  0  0  0  0999 V2000
  -14.3460  -25.6840  -12.1120 C   0  0  1  0  0  0  0  0  0  0  0  0
  -13.1230  -26.1560  -12.7400 N   0  0  0  0  0  0  0  0  0  0  0  0
  -12.6710  -26.8600  -12.1540 H   0  0  0  0  0  0  0  0  0  0  0  0
  -13.4340  -26.8800  -13.9250 O   0  0  0  0  0  0  0  0  0  0  0  0
  -14.8040  -26.7540  -14.2050 C   0  0  2  0  0  0  0  0  0  0  0  0
  -15.4000  -28.0810  -14.6610 C   0  0  1  0  0  0  0  0  0  0  0  0
  -15.9670  -27.9280  -16.0720 C   0  0  2  0  0  0  0  0  0  0  0  0
  -14.9260  -27.2310  -16.9470 C   0  0  1  0  0  0  0  0  0  0  0  0
  -14.6210  -25.8350  -16.3900 C   0  0  2  0  0  0  0  0  0  0  0  0
  -15.0860  -25.6610  -15.0640 O   0  0  0  0  0  0  0  0  0  0  0  0
  -15.4400  -26.3650  -12.8950 C   0  0  0  0  0  0  0  0  0  0  0  0
  -14.3890  -25.9840  -10.6280 C   0  0  0  0  0  0  0  0  0  0  0  0
  -13.2030  -25.9610   -9.8940 C   0  0  0  0  0  0  0  0  0  0  0  0
  -13.2240  -26.1850   -8.5290 C   0  0  0  0  0  0  0  0  0  0  0  0
  -14.4150  -26.4360   -7.8540 C   0  0  0  0  0  0  0  0  0  0  0  0
  -14.4510  -26.6530   -6.4800 C   0  0  0  0  0  0  0  0  0  0  0  0
  -15.6570  -26.8970   -5.8330 C   0  0  0  0  0  0  0  0  0  0  0  0
  -16.8470  -26.9310   -6.5430 C   0  0  0  0  0  0  0  0  0  0  0  0
  -16.8160  -26.7130   -7.9110 C   0  0  0  0  0  0  0  0  0  0  0  0
  -15.6120  -26.4650   -8.5760 C   0  0  0  0  0  0  0  0  0  0  0  0
  -15.5720  -26.2300   -9.9420 C   0  0  0  0  0  0  0  0  0  0  0  0
  -17.1990  -27.1930  -16.0510 O   0  0  0  0  0  0  0  0  0  0  0  0
  -17.3190  -26.7660  -15.1770 H   0  0  0  0  0  0  0  0  0  0  0  0
  -14.4250  -29.1600  -14.6330 O   0  0  0  0  0  0  0  0  0  0  0  0
  -14.9160  -29.9940  -14.5800 H   0  0  0  0  0  0  0  0  0  0  0  0
  -13.7120  -27.9890  -16.9220 O   0  0  0  0  0  0  0  0  0  0  0  0
  -13.9010  -28.9350  -17.0380 H   0  0  0  0  0  0  0  0  0  0  0  0
  -15.3180  -24.7540  -17.2240 C   0  0  0  0  0  0  0  0  0  0  0  0
  -16.2180  -25.3110  -18.1910 O   0  0  0  0  0  0  0  0  0  0  0  0
  -17.1080  -25.3850  -17.7870 H   0  0  0  0  0  0  0  0  0  0  0  0
  1 12  1  1  0  0  0
  2  3  1  0  0  0  0
  2  1  1  0  0  0  0
  4  2  1  0  0  0  0
  5  4  1  0  0  0  0
  5 11  1  1  0  0  0
  6 24  1  0  0  0  0
  6  5  1  6  0  0  0
  7 22  1  1  0  0  0
  7  6  1  0  0  0  0
  8 26  1  1  0  0  0
  8  9  1  0  0  0  0
  8  7  1  0  0  0  0
  9 28  1  6  0  0  0
  9 10  1  0  0  0  0
 10  5  1  0  0  0  0
 11  1  1  0  0  0  0
 12 21  2  0  0  0  0
 12 13  1  0  0  0  0
 13 14  2  0  0  0  0
 14 15  1  0  0  0  0
 15 16  2  0  0  0  0
 16 17  1  0  0  0  0
 18 17  2  0  0  0  0
 19 18  1  0  0  0  0
 20 19  2  0  0  0  0
 20 15  1  0  0  0  0
 21 20  1  0  0  0  0
 22 23  1  0  0  0  0
 24 25  1  0  0  0  0
 27 26  1  0  0  0  0
 29 30  1  0  0  0  0
 29 28  1  0  0  0  0
M  END
>  <minimizedAffinity>
-8.11598969

$$$$
