
 OpenBabel12271914413D

 37 41  0  0  1  0  0  0  0  0999 V2000
  -15.4200  -26.3300  -10.6810 C   0  0  2  0  0  0  0  0  0  0  0  0
  -15.7310  -27.6110  -10.0670 O   0  0  0  0  0  0  0  0  0  0  0  0
  -16.9560  -28.1990  -10.0080 C   0  0  0  0  0  0  0  0  0  0  0  0
  -17.0280  -29.3560   -9.6060 O   0  0  0  0  0  0  0  0  0  0  0  0
  -18.0970  -27.4000  -10.4520 C   0  0  1  0  0  0  0  0  0  0  0  0
  -18.0380  -26.1190  -10.9550 C   0  0  0  0  0  0  0  0  0  0  0  0
  -18.9350  -25.3920  -11.3870 O   0  0  0  0  0  0  0  0  0  0  0  0
  -16.6690  -25.4550  -11.0140 C   0  0  0  0  0  0  0  0  0  0  0  0
  -14.6770  -26.6600  -11.9820 C   0  0  0  0  0  0  0  0  0  0  0  0
  -15.5130  -26.6630  -13.2960 C   0  0  0  0  0  0  0  0  0  0  0  0
  -14.6070  -26.0220  -14.3660 C   0  0  0  0  0  0  0  0  0  0  0  0
  -13.2370  -26.0140  -13.7120 C   0  0  0  0  0  0  0  0  0  0  0  0
  -13.5870  -25.6220  -12.3070 C   0  0  0  0  0  0  0  0  0  0  0  0
  -19.4720  -28.0420  -10.4030 C   0  0  0  0  0  0  0  0  0  0  0  0
  -19.8420  -28.7750  -11.6840 C   0  0  0  0  0  0  0  0  0  0  0  0
  -21.1280  -28.9530  -12.1370 N   0  0  0  0  0  0  0  0  0  0  0  0
  -21.0050  -29.6320  -13.2570 C   0  0  0  0  0  0  0  0  0  0  0  0
  -21.9530  -30.0980  -14.1530 N   0  0  0  0  0  0  0  0  0  0  0  0
  -21.5720  -30.7770  -15.1700 C   0  0  0  0  0  0  0  0  0  0  0  0
  -22.6190  -31.3030  -16.1480 C   0  0  0  0  0  0  0  0  0  0  0  0
  -20.1270  -31.0920  -15.4720 C   0  0  0  0  0  0  0  0  0  0  0  0
  -19.2340  -30.6350  -14.6010 C   0  0  0  0  0  0  0  0  0  0  0  0
  -17.7470  -30.8760  -14.7590 C   0  0  0  0  0  0  0  0  0  0  0  0
  -19.6540  -29.8860  -13.4650 N   0  0  0  0  0  0  0  0  0  0  0  0
  -18.9160  -29.3670  -12.4880 N   0  0  0  0  0  0  0  0  0  0  0  0
  -14.5320  -25.6560   -9.5920 C   0  0  0  0  0  0  0  0  0  0  0  0
  -15.1110  -24.9190   -8.3630 C   0  0  0  0  0  0  0  0  0  0  0  0
  -15.5050  -27.3000   -5.4300 C   0  0  0  0  0  0  0  0  0  0  0  0
  -16.7940  -27.1080   -5.0760 N   0  0  0  0  0  0  0  0  0  0  0  0
  -17.5600  -26.2850   -5.8160 C   0  0  0  0  0  0  0  0  0  0  0  0
  -17.0550  -25.5620   -6.9110 C   0  0  0  0  0  0  0  0  0  0  0  0
  -15.7190  -25.7330   -7.2520 C   0  0  0  0  0  0  0  0  0  0  0  0
  -14.9440  -26.6170   -6.5160 C   0  0  0  0  0  0  0  0  0  0  0  0
  -15.2640  -28.4780   -3.2200 C   0  0  0  0  0  0  0  0  0  0  0  0
  -14.6570  -28.2440   -4.6050 C   0  0  0  0  0  0  0  0  0  0  0  0
  -19.0040  -26.0920   -5.4260 C   0  0  0  0  0  0  0  0  0  0  0  0
  -19.8580  -25.8330   -6.6600 C   0  0  0  0  0  0  0  0  0  0  0  0
  1  2  1  0  0  0  0
  1 26  1  1  0  0  0
  2  3  1  0  0  0  0
  3  4  2  0  0  0  0
  5 14  1  6  0  0  0
  5  3  1  0  0  0  0
  6  5  1  0  0  0  0
  7  6  2  0  0  0  0
  8  6  1  0  0  0  0
  8  1  1  0  0  0  0
  9  1  1  0  0  0  0
 10  9  1  0  0  0  0
 11 12  1  0  0  0  0
 11 10  1  0  0  0  0
 12 13  1  0  0  0  0
 13  9  1  0  0  0  0
 15 14  1  0  0  0  0
 16 15  2  0  0  0  0
 17 16  2  0  0  0  0
 18 17  2  0  0  0  0
 19 18  2  0  0  0  0
 20 19  1  0  0  0  0
 21 19  1  0  0  0  0
 21 22  2  0  0  0  0
 22 24  1  0  0  0  0
 23 22  1  0  0  0  0
 24 17  1  0  0  0  0
 24 25  1  0  0  0  0
 25 15  2  0  0  0  0
 26 27  1  0  0  0  0
 27 32  1  0  0  0  0
 28 29  2  0  0  0  0
 28 35  1  0  0  0  0
 30 36  1  0  0  0  0
 30 29  2  0  0  0  0
 31 30  1  0  0  0  0
 32 31  1  0  0  0  0
 32 33  2  0  0  0  0
 33 28  1  0  0  0  0
 35 34  1  0  0  0  0
 37 36  1  0  0  0  0
M  END
>  <minimizedAffinity>
-9.73666477

$$$$

 OpenBabel12271914413D

 37 41  0  0  1  0  0  0  0  0999 V2000
  -16.0660  -26.5560  -10.8090 C   0  0  2  0  0  0  0  0  0  0  0  0
  -16.2930  -27.8120  -10.1120 O   0  0  0  0  0  0  0  0  0  0  0  0
  -17.5020  -28.3600   -9.8130 C   0  0  0  0  0  0  0  0  0  0  0  0
  -17.5300  -29.5040   -9.3720 O   0  0  0  0  0  0  0  0  0  0  0  0
  -18.6840  -27.5360  -10.0650 C   0  0  1  0  0  0  0  0  0  0  0  0
  -18.6840  -26.2690  -10.6070 C   0  0  0  0  0  0  0  0  0  0  0  0
  -19.6250  -25.5250  -10.8900 O   0  0  0  0  0  0  0  0  0  0  0  0
  -17.3310  -25.6500  -10.9340 C   0  0  0  0  0  0  0  0  0  0  0  0
  -15.5830  -26.9400  -12.2130 C   0  0  0  0  0  0  0  0  0  0  0  0
  -15.9590  -25.9810  -13.3810 C   0  0  0  0  0  0  0  0  0  0  0  0
  -14.7150  -25.9220  -14.2890 C   0  0  0  0  0  0  0  0  0  0  0  0
  -13.8630  -27.0770  -13.7970 C   0  0  0  0  0  0  0  0  0  0  0  0
  -14.0460  -26.9640  -12.3130 C   0  0  0  0  0  0  0  0  0  0  0  0
  -20.0430  -28.1330   -9.7480 C   0  0  0  0  0  0  0  0  0  0  0  0
  -20.7410  -28.7250  -10.9630 C   0  0  0  0  0  0  0  0  0  0  0  0
  -22.1000  -28.6970  -11.1730 N   0  0  0  0  0  0  0  0  0  0  0  0
  -22.2810  -29.3120  -12.3210 C   0  0  0  0  0  0  0  0  0  0  0  0
  -23.4330  -29.5870  -13.0400 N   0  0  0  0  0  0  0  0  0  0  0  0
  -23.3450  -30.2440  -14.1360 C   0  0  0  0  0  0  0  0  0  0  0  0
  -24.6170  -30.5580  -14.9190 C   0  0  0  0  0  0  0  0  0  0  0  0
  -22.0400  -30.7320  -14.7160 C   0  0  0  0  0  0  0  0  0  0  0  0
  -20.9480  -30.4580  -14.0120 C   0  0  0  0  0  0  0  0  0  0  0  0
  -19.5650  -30.8880  -14.4560 C   0  0  0  0  0  0  0  0  0  0  0  0
  -21.0410  -29.7330  -12.7890 N   0  0  0  0  0  0  0  0  0  0  0  0
  -20.0720  -29.3840  -11.9490 N   0  0  0  0  0  0  0  0  0  0  0  0
  -14.9770  -25.8850   -9.9200 C   0  0  0  0  0  0  0  0  0  0  0  0
  -15.3070  -25.0120   -8.6880 C   0  0  0  0  0  0  0  0  0  0  0  0
  -17.6610  -26.2390   -5.9710 C   0  0  0  0  0  0  0  0  0  0  0  0
  -16.8690  -27.0710   -5.2600 N   0  0  0  0  0  0  0  0  0  0  0  0
  -15.5700  -27.1810   -5.5930 C   0  0  0  0  0  0  0  0  0  0  0  0
  -15.0120  -26.5120   -6.6970 C   0  0  0  0  0  0  0  0  0  0  0  0
  -15.8360  -25.6840   -7.4490 C   0  0  0  0  0  0  0  0  0  0  0  0
  -17.1640  -25.5360   -7.0750 C   0  0  0  0  0  0  0  0  0  0  0  0
  -19.9950  -25.7660   -6.7810 C   0  0  0  0  0  0  0  0  0  0  0  0
  -19.1150  -26.1040   -5.5750 C   0  0  0  0  0  0  0  0  0  0  0  0
  -14.6880  -28.0970   -4.7810 C   0  0  0  0  0  0  0  0  0  0  0  0
  -15.3560  -28.4410   -3.4560 C   0  0  0  0  0  0  0  0  0  0  0  0
  1  2  1  0  0  0  0
  1 26  1  1  0  0  0
  2  3  1  0  0  0  0
  3  4  2  0  0  0  0
  5  3  1  0  0  0  0
  5 14  1  6  0  0  0
  6  5  1  0  0  0  0
  7  6  2  0  0  0  0
  8  1  1  0  0  0  0
  8  6  1  0  0  0  0
  9  1  1  0  0  0  0
 10  9  1  0  0  0  0
 11 12  1  0  0  0  0
 11 10  1  0  0  0  0
 12 13  1  0  0  0  0
 13  9  1  0  0  0  0
 15 14  1  0  0  0  0
 16 15  2  0  0  0  0
 17 16  2  0  0  0  0
 18 17  2  0  0  0  0
 19 18  2  0  0  0  0
 20 19  1  0  0  0  0
 21 19  1  0  0  0  0
 21 22  2  0  0  0  0
 22 24  1  0  0  0  0
 23 22  1  0  0  0  0
 24 17  1  0  0  0  0
 24 25  1  0  0  0  0
 25 15  2  0  0  0  0
 26 27  1  0  0  0  0
 27 32  1  0  0  0  0
 28 35  1  0  0  0  0
 28 29  2  0  0  0  0
 30 29  2  0  0  0  0
 30 36  1  0  0  0  0
 31 30  1  0  0  0  0
 32 33  1  0  0  0  0
 32 31  2  0  0  0  0
 33 28  1  0  0  0  0
 34 35  1  0  0  0  0
 36 37  1  0  0  0  0
M  END
>  <minimizedAffinity>
-9.62611103

$$$$

 OpenBabel12271914413D

 37 41  0  0  1  0  0  0  0  0999 V2000
  -15.4960  -26.4970  -11.2560 C   0  0  2  0  0  0  0  0  0  0  0  0
  -16.2870  -27.6860  -10.9820 O   0  0  0  0  0  0  0  0  0  0  0  0
  -17.5750  -27.9000  -11.3610 C   0  0  0  0  0  0  0  0  0  0  0  0
  -18.0500  -29.0200  -11.2020 O   0  0  0  0  0  0  0  0  0  0  0  0
  -18.2900  -26.7700  -11.9530 C   0  0  1  0  0  0  0  0  0  0  0  0
  -17.7640  -25.5190  -12.1900 C   0  0  0  0  0  0  0  0  0  0  0  0
  -18.2760  -24.5280  -12.7170 O   0  0  0  0  0  0  0  0  0  0  0  0
  -16.3250  -25.2730  -11.7590 C   0  0  0  0  0  0  0  0  0  0  0  0
  -14.4930  -26.9040  -12.3430 C   0  0  0  0  0  0  0  0  0  0  0  0
  -15.0340  -27.7650  -13.5220 C   0  0  0  0  0  0  0  0  0  0  0  0
  -14.3370  -27.2250  -14.7870 C   0  0  0  0  0  0  0  0  0  0  0  0
  -13.2210  -26.3580  -14.2330 C   0  0  0  0  0  0  0  0  0  0  0  0
  -13.9150  -25.6850  -13.0870 C   0  0  0  0  0  0  0  0  0  0  0  0
  -19.7250  -26.9920  -12.3920 C   0  0  0  0  0  0  0  0  0  0  0  0
  -20.7450  -26.6570  -11.3140 C   0  0  0  0  0  0  0  0  0  0  0  0
  -21.4830  -27.5890  -10.6220 N   0  0  0  0  0  0  0  0  0  0  0  0
  -22.2350  -26.8880   -9.8000 C   0  0  0  0  0  0  0  0  0  0  0  0
  -23.1750  -27.2790   -8.8610 N   0  0  0  0  0  0  0  0  0  0  0  0
  -23.8090  -26.3840   -8.2000 C   0  0  0  0  0  0  0  0  0  0  0  0
  -24.8550  -26.8160   -7.1760 C   0  0  0  0  0  0  0  0  0  0  0  0
  -23.5810  -24.9020   -8.3680 C   0  0  0  0  0  0  0  0  0  0  0  0
  -22.6750  -24.5480   -9.2720 C   0  0  0  0  0  0  0  0  0  0  0  0
  -22.3390  -23.1000   -9.5630 C   0  0  0  0  0  0  0  0  0  0  0  0
  -21.9720  -25.5400  -10.0150 N   0  0  0  0  0  0  0  0  0  0  0  0
  -21.0530  -25.3790  -10.9620 N   0  0  0  0  0  0  0  0  0  0  0  0
  -14.8510  -26.2100   -9.8680 C   0  0  0  0  0  0  0  0  0  0  0  0
  -15.4800  -25.2640   -8.8190 C   0  0  0  0  0  0  0  0  0  0  0  0
  -17.7050  -26.2930   -5.9180 C   0  0  0  0  0  0  0  0  0  0  0  0
  -16.8800  -27.0720   -5.1860 N   0  0  0  0  0  0  0  0  0  0  0  0
  -15.5970  -27.2070   -5.5700 C   0  0  0  0  0  0  0  0  0  0  0  0
  -15.0910  -26.6180   -6.7420 C   0  0  0  0  0  0  0  0  0  0  0  0
  -15.9510  -25.8450   -7.5130 C   0  0  0  0  0  0  0  0  0  0  0  0
  -17.2610  -25.6710   -7.0910 C   0  0  0  0  0  0  0  0  0  0  0  0
  -20.0500  -25.7270   -6.6310 C   0  0  0  0  0  0  0  0  0  0  0  0
  -19.1400  -26.1300   -5.4680 C   0  0  0  0  0  0  0  0  0  0  0  0
  -14.6760  -28.0620   -4.7350 C   0  0  0  0  0  0  0  0  0  0  0  0
  -15.3470  -28.4400   -3.4210 C   0  0  0  0  0  0  0  0  0  0  0  0
  1  2  1  0  0  0  0
  1 26  1  1  0  0  0
  3  4  2  0  0  0  0
  3  2  1  0  0  0  0
  5 14  1  6  0  0  0
  5  3  1  0  0  0  0
  6  5  1  0  0  0  0
  6  8  1  0  0  0  0
  7  6  2  0  0  0  0
  8  1  1  0  0  0  0
  9  1  1  0  0  0  0
 10  9  1  0  0  0  0
 11 12  1  0  0  0  0
 11 10  1  0  0  0  0
 12 13  1  0  0  0  0
 13  9  1  0  0  0  0
 14 15  1  0  0  0  0
 15 25  2  0  0  0  0
 15 16  2  0  0  0  0
 16 17  2  0  0  0  0
 17 18  2  0  0  0  0
 18 19  2  0  0  0  0
 19 20  1  0  0  0  0
 21 19  1  0  0  0  0
 22 21  2  0  0  0  0
 23 22  1  0  0  0  0
 24 17  1  0  0  0  0
 24 22  1  0  0  0  0
 25 24  1  0  0  0  0
 26 27  1  0  0  0  0
 27 32  1  0  0  0  0
 28 35  1  0  0  0  0
 28 29  2  0  0  0  0
 30 29  2  0  0  0  0
 30 36  1  0  0  0  0
 31 30  1  0  0  0  0
 32 33  1  0  0  0  0
 32 31  2  0  0  0  0
 33 28  1  0  0  0  0
 34 35  1  0  0  0  0
 36 37  1  0  0  0  0
M  END
>  <minimizedAffinity>
-9.50521469

$$$$

 OpenBabel12271914413D

 37 41  0  0  1  0  0  0  0  0999 V2000
  -15.4230  -26.1560  -10.2140 C   0  0  2  0  0  0  0  0  0  0  0  0
  -15.8840  -27.4800   -9.8290 O   0  0  0  0  0  0  0  0  0  0  0  0
  -17.0410  -28.0770  -10.2260 C   0  0  0  0  0  0  0  0  0  0  0  0
  -17.2090  -29.2600   -9.9510 O   0  0  0  0  0  0  0  0  0  0  0  0
  -17.9900  -27.2530  -10.9730 C   0  0  1  0  0  0  0  0  0  0  0  0
  -17.8030  -25.9380  -11.3390 C   0  0  0  0  0  0  0  0  0  0  0  0
  -18.5240  -25.1860  -11.9980 O   0  0  0  0  0  0  0  0  0  0  0  0
  -16.5140  -25.2650  -10.8880 C   0  0  0  0  0  0  0  0  0  0  0  0
  -14.2780  -26.3860  -11.2080 C   0  0  0  0  0  0  0  0  0  0  0  0
  -14.6690  -26.7000  -12.6820 C   0  0  0  0  0  0  0  0  0  0  0  0
  -13.6540  -25.9350  -13.5540 C   0  0  0  0  0  0  0  0  0  0  0  0
  -12.5730  -25.5310  -12.5670 C   0  0  0  0  0  0  0  0  0  0  0  0
  -13.3970  -25.1340  -11.3790 C   0  0  0  0  0  0  0  0  0  0  0  0
  -19.2810  -27.9040  -11.4340 C   0  0  0  0  0  0  0  0  0  0  0  0
  -20.4980  -27.4630  -10.6350 C   0  0  0  0  0  0  0  0  0  0  0  0
  -20.4480  -26.9110   -9.3760 N   0  0  0  0  0  0  0  0  0  0  0  0
  -21.7020  -26.6820   -9.0520 C   0  0  0  0  0  0  0  0  0  0  0  0
  -22.2680  -26.1390   -7.9100 N   0  0  0  0  0  0  0  0  0  0  0  0
  -23.5420  -26.0540   -7.8240 C   0  0  0  0  0  0  0  0  0  0  0  0
  -24.1650  -25.4690   -6.5580 C   0  0  0  0  0  0  0  0  0  0  0  0
  -24.4870  -26.4980   -8.9140 C   0  0  0  0  0  0  0  0  0  0  0  0
  -23.9240  -27.0140  -10.0010 C   0  0  0  0  0  0  0  0  0  0  0  0
  -24.7370  -27.5130  -11.1780 C   0  0  0  0  0  0  0  0  0  0  0  0
  -22.5070  -27.1180  -10.0990 N   0  0  0  0  0  0  0  0  0  0  0  0
  -21.7720  -27.6160  -11.0890 N   0  0  0  0  0  0  0  0  0  0  0  0
  -14.9730  -25.5600   -8.8470 C   0  0  0  0  0  0  0  0  0  0  0  0
  -14.4590  -26.4240   -7.6730 C   0  0  0  0  0  0  0  0  0  0  0  0
  -15.8510  -27.7150   -4.3840 C   0  0  0  0  0  0  0  0  0  0  0  0
  -17.1140  -27.2380   -4.4000 N   0  0  0  0  0  0  0  0  0  0  0  0
  -17.5490  -26.5750   -5.4870 C   0  0  0  0  0  0  0  0  0  0  0  0
  -16.7190  -26.3020   -6.5890 C   0  0  0  0  0  0  0  0  0  0  0  0
  -15.4090  -26.7640   -6.5560 C   0  0  0  0  0  0  0  0  0  0  0  0
  -14.9770  -27.4860   -5.4540 C   0  0  0  0  0  0  0  0  0  0  0  0
  -14.1570  -29.3450   -3.4860 C   0  0  0  0  0  0  0  0  0  0  0  0
  -15.3760  -28.4770   -3.1650 C   0  0  0  0  0  0  0  0  0  0  0  0
  -18.9680  -26.0630   -5.5050 C   0  0  0  0  0  0  0  0  0  0  0  0
  -19.1470  -25.0330   -6.6130 C   0  0  0  0  0  0  0  0  0  0  0  0
  1  2  1  0  0  0  0
  1 26  1  1  0  0  0
  3  4  2  0  0  0  0
  3  2  1  0  0  0  0
  5 14  1  6  0  0  0
  5  3  1  0  0  0  0
  6  5  1  0  0  0  0
  6  8  1  0  0  0  0
  7  6  2  0  0  0  0
  8  1  1  0  0  0  0
  9  1  1  0  0  0  0
 10  9  1  0  0  0  0
 11 10  1  0  0  0  0
 11 12  1  0  0  0  0
 12 13  1  0  0  0  0
 13  9  1  0  0  0  0
 14 15  1  0  0  0  0
 15 16  2  0  0  0  0
 16 17  2  0  0  0  0
 17 18  2  0  0  0  0
 18 19  2  0  0  0  0
 19 20  1  0  0  0  0
 21 19  1  0  0  0  0
 22 21  2  0  0  0  0
 23 22  1  0  0  0  0
 24 22  1  0  0  0  0
 24 17  1  0  0  0  0
 25 15  2  0  0  0  0
 25 24  1  0  0  0  0
 26 27  1  0  0  0  0
 27 32  1  0  0  0  0
 28 35  1  0  0  0  0
 29 28  2  0  0  0  0
 30 29  2  0  0  0  0
 31 32  1  0  0  0  0
 31 30  1  0  0  0  0
 32 33  2  0  0  0  0
 33 28  1  0  0  0  0
 34 35  1  0  0  0  0
 36 30  1  0  0  0  0
 37 36  1  0  0  0  0
M  END
>  <minimizedAffinity>
-9.48226929

$$$$

 OpenBabel12271914413D

 37 41  0  0  1  0  0  0  0  0999 V2000
  -16.2780  -26.3160  -10.3210 C   0  0  2  0  0  0  0  0  0  0  0  0
  -17.1500  -25.4270  -11.0710 O   0  0  0  0  0  0  0  0  0  0  0  0
  -17.3070  -25.4050  -12.4220 C   0  0  0  0  0  0  0  0  0  0  0  0
  -18.2040  -24.7120  -12.8930 O   0  0  0  0  0  0  0  0  0  0  0  0
  -16.3970  -26.2350  -13.2100 C   0  0  1  0  0  0  0  0  0  0  0  0
  -15.4170  -27.0610  -12.7030 C   0  0  0  0  0  0  0  0  0  0  0  0
  -14.6380  -27.8200  -13.2850 O   0  0  0  0  0  0  0  0  0  0  0  0
  -15.2320  -27.0800  -11.1920 C   0  0  0  0  0  0  0  0  0  0  0  0
  -17.2050  -27.3340   -9.6420 C   0  0  0  0  0  0  0  0  0  0  0  0
  -18.7220  -26.9890   -9.5930 C   0  0  0  0  0  0  0  0  0  0  0  0
  -19.4590  -28.3170   -9.8570 C   0  0  0  0  0  0  0  0  0  0  0  0
  -18.3710  -29.3640   -9.6990 C   0  0  0  0  0  0  0  0  0  0  0  0
  -17.2160  -28.6880  -10.3750 C   0  0  0  0  0  0  0  0  0  0  0  0
  -16.5630  -26.2330  -14.7180 C   0  0  0  0  0  0  0  0  0  0  0  0
  -15.2420  -26.1940  -15.4720 C   0  0  0  0  0  0  0  0  0  0  0  0
  -14.9300  -27.0000  -16.5410 N   0  0  0  0  0  0  0  0  0  0  0  0
  -13.7100  -26.6520  -16.8870 C   0  0  0  0  0  0  0  0  0  0  0  0
  -12.8760  -27.1140  -17.8920 N   0  0  0  0  0  0  0  0  0  0  0  0
  -11.6970  -26.6260  -18.0010 C   0  0  0  0  0  0  0  0  0  0  0  0
  -10.7750  -27.1470  -19.1010 C   0  0  0  0  0  0  0  0  0  0  0  0
  -11.1530  -25.5440  -17.1010 C   0  0  0  0  0  0  0  0  0  0  0  0
  -11.9680  -25.1140  -16.1450 C   0  0  0  0  0  0  0  0  0  0  0  0
  -11.5650  -24.0390  -15.1560 C   0  0  0  0  0  0  0  0  0  0  0  0
  -13.2780  -25.6590  -16.0150 N   0  0  0  0  0  0  0  0  0  0  0  0
  -14.2180  -25.3690  -15.1200 N   0  0  0  0  0  0  0  0  0  0  0  0
  -15.5810  -25.3310   -9.3360 C   0  0  0  0  0  0  0  0  0  0  0  0
  -14.6360  -25.7930   -8.2030 C   0  0  0  0  0  0  0  0  0  0  0  0
  -17.1100  -26.5340   -5.4170 C   0  0  0  0  0  0  0  0  0  0  0  0
  -16.4290  -27.4190   -4.6580 N   0  0  0  0  0  0  0  0  0  0  0  0
  -15.1590  -27.7190   -4.9840 C   0  0  0  0  0  0  0  0  0  0  0  0
  -14.5260  -27.1960   -6.1250 C   0  0  0  0  0  0  0  0  0  0  0  0
  -15.2400  -26.3130   -6.9260 C   0  0  0  0  0  0  0  0  0  0  0  0
  -16.5330  -25.9690   -6.5620 C   0  0  0  0  0  0  0  0  0  0  0  0
  -19.3730  -25.8250   -6.2580 C   0  0  0  0  0  0  0  0  0  0  0  0
  -18.5310  -26.1850   -5.0320 C   0  0  0  0  0  0  0  0  0  0  0  0
  -14.3990  -28.6930   -4.1180 C   0  0  0  0  0  0  0  0  0  0  0  0
  -14.9320  -28.6660   -2.6920 C   0  0  0  0  0  0  0  0  0  0  0  0
  1  9  1  0  0  0  0
  1 26  1  1  0  0  0
  2  1  1  0  0  0  0
  3  2  1  0  0  0  0
  4  3  2  0  0  0  0
  5 14  1  1  0  0  0
  5  6  1  0  0  0  0
  5  3  1  0  0  0  0
  6  8  1  0  0  0  0
  7  6  2  0  0  0  0
  8  1  1  0  0  0  0
  9 10  1  0  0  0  0
 11 12  1  0  0  0  0
 11 10  1  0  0  0  0
 13 12  1  0  0  0  0
 13  9  1  0  0  0  0
 15 25  2  0  0  0  0
 15 14  1  0  0  0  0
 16 15  2  0  0  0  0
 17 16  2  0  0  0  0
 17 24  1  0  0  0  0
 18 17  2  0  0  0  0
 19 18  2  0  0  0  0
 19 21  1  0  0  0  0
 20 19  1  0  0  0  0
 21 22  2  0  0  0  0
 22 24  1  0  0  0  0
 22 23  1  0  0  0  0
 24 25  1  0  0  0  0
 26 27  1  0  0  0  0
 27 32  1  0  0  0  0
 28 35  1  0  0  0  0
 28 29  2  0  0  0  0
 30 29  2  0  0  0  0
 30 36  1  0  0  0  0
 31 30  1  0  0  0  0
 32 33  1  0  0  0  0
 32 31  2  0  0  0  0
 33 28  1  0  0  0  0
 34 35  1  0  0  0  0
 36 37  1  0  0  0  0
M  END
>  <minimizedAffinity>
-9.01391888

$$$$

 OpenBabel12271914413D

 37 41  0  0  1  0  0  0  0  0999 V2000
  -13.3880  -25.7460  -14.7010 C   0  0  2  0  0  0  0  0  0  0  0  0
  -13.1210  -27.1310  -14.3450 O   0  0  0  0  0  0  0  0  0  0  0  0
  -13.8940  -28.2060  -14.6570 C   0  0  0  0  0  0  0  0  0  0  0  0
  -13.4500  -29.3270  -14.4310 O   0  0  0  0  0  0  0  0  0  0  0  0
  -15.1980  -27.9330  -15.2600 C   0  0  1  0  0  0  0  0  0  0  0  0
  -15.6970  -26.6870  -15.5700 C   0  0  0  0  0  0  0  0  0  0  0  0
  -16.7580  -26.3680  -16.1120 O   0  0  0  0  0  0  0  0  0  0  0  0
  -14.8380  -25.4810  -15.2140 C   0  0  0  0  0  0  0  0  0  0  0  0
  -12.3910  -25.4030  -15.8150 C   0  0  0  0  0  0  0  0  0  0  0  0
  -12.9670  -24.7540  -17.1080 C   0  0  0  0  0  0  0  0  0  0  0  0
  -11.9440  -23.6790  -17.5250 C   0  0  0  0  0  0  0  0  0  0  0  0
  -10.7240  -24.0040  -16.6820 C   0  0  0  0  0  0  0  0  0  0  0  0
  -11.3610  -24.3480  -15.3680 C   0  0  0  0  0  0  0  0  0  0  0  0
  -16.0710  -29.1190  -15.6250 C   0  0  0  0  0  0  0  0  0  0  0  0
  -17.1760  -29.3890  -14.6150 C   0  0  0  0  0  0  0  0  0  0  0  0
  -18.4590  -29.7610  -14.9430 N   0  0  0  0  0  0  0  0  0  0  0  0
  -19.0840  -29.8860  -13.7920 C   0  0  0  0  0  0  0  0  0  0  0  0
  -20.3890  -30.2380  -13.4930 N   0  0  0  0  0  0  0  0  0  0  0  0
  -20.7690  -30.2520  -12.2700 C   0  0  0  0  0  0  0  0  0  0  0  0
  -22.2120  -30.6270  -11.9430 C   0  0  0  0  0  0  0  0  0  0  0  0
  -19.8640  -29.9220  -11.1090 C   0  0  0  0  0  0  0  0  0  0  0  0
  -18.6160  -29.5880  -11.4170 C   0  0  0  0  0  0  0  0  0  0  0  0
  -17.5890  -29.2200  -10.3650 C   0  0  0  0  0  0  0  0  0  0  0  0
  -18.1900  -29.5630  -12.7760 N   0  0  0  0  0  0  0  0  0  0  0  0
  -17.0000  -29.2420  -13.2730 N   0  0  0  0  0  0  0  0  0  0  0  0
  -13.1210  -25.0080  -13.3560 C   0  0  0  0  0  0  0  0  0  0  0  0
  -13.1350  -25.7180  -11.9820 C   0  0  0  0  0  0  0  0  0  0  0  0
  -16.7790  -25.6700  -10.9120 C   0  0  0  0  0  0  0  0  0  0  0  0
  -16.6830  -25.6520   -9.5660 N   0  0  0  0  0  0  0  0  0  0  0  0
  -15.4650  -25.5750   -8.9990 C   0  0  0  0  0  0  0  0  0  0  0  0
  -14.2770  -25.5760   -9.7520 C   0  0  0  0  0  0  0  0  0  0  0  0
  -14.3780  -25.6290  -11.1370 C   0  0  0  0  0  0  0  0  0  0  0  0
  -15.6350  -25.6630  -11.7200 C   0  0  0  0  0  0  0  0  0  0  0  0
  -18.0790  -25.6090  -13.0660 C   0  0  0  0  0  0  0  0  0  0  0  0
  -18.1540  -25.7350  -11.5420 C   0  0  0  0  0  0  0  0  0  0  0  0
  -15.3670  -25.5350   -7.4940 C   0  0  0  0  0  0  0  0  0  0  0  0
  -14.3120  -26.5180   -7.0030 C   0  0  0  0  0  0  0  0  0  0  0  0
  1  2  1  0  0  0  0
  1 26  1  1  0  0  0
  3  4  2  0  0  0  0
  3  2  1  0  0  0  0
  5 14  1  6  0  0  0
  5  3  1  0  0  0  0
  6  5  1  0  0  0  0
  6  8  1  0  0  0  0
  7  6  2  0  0  0  0
  8  1  1  0  0  0  0
  9 13  1  0  0  0  0
  9  1  1  0  0  0  0
 10  9  1  0  0  0  0
 11 10  1  0  0  0  0
 11 12  1  0  0  0  0
 12 13  1  0  0  0  0
 14 15  1  0  0  0  0
 15 25  2  0  0  0  0
 16 15  2  0  0  0  0
 16 17  2  0  0  0  0
 17 18  2  0  0  0  0
 17 24  1  0  0  0  0
 18 19  2  0  0  0  0
 19 20  1  0  0  0  0
 19 21  1  0  0  0  0
 22 21  2  0  0  0  0
 22 23  1  0  0  0  0
 24 22  1  0  0  0  0
 25 24  1  0  0  0  0
 26 27  1  0  0  0  0
 27 32  1  0  0  0  0
 28 29  2  0  0  0  0
 29 30  2  0  0  0  0
 30 36  1  0  0  0  0
 31 30  1  0  0  0  0
 32 31  2  0  0  0  0
 33 32  1  0  0  0  0
 33 28  1  0  0  0  0
 34 35  1  0  0  0  0
 35 28  1  0  0  0  0
 36 37  1  0  0  0  0
M  END
>  <minimizedAffinity>
-8.94538879

$$$$

 OpenBabel12271914413D

 37 41  0  0  1  0  0  0  0  0999 V2000
  -15.1650  -27.2260  -13.9820 C   0  0  2  0  0  0  0  0  0  0  0  0
  -16.3040  -26.6710  -13.2680 O   0  0  0  0  0  0  0  0  0  0  0  0
  -16.2520  -25.8130  -12.2130 C   0  0  0  0  0  0  0  0  0  0  0  0
  -17.2990  -25.3030  -11.8260 O   0  0  0  0  0  0  0  0  0  0  0  0
  -14.9350  -25.5520  -11.6340 C   0  0  1  0  0  0  0  0  0  0  0  0
  -13.7400  -26.0720  -12.0810 C   0  0  0  0  0  0  0  0  0  0  0  0
  -12.5900  -25.8760  -11.6830 O   0  0  0  0  0  0  0  0  0  0  0  0
  -13.7960  -27.0390  -13.2550 C   0  0  0  0  0  0  0  0  0  0  0  0
  -15.1220  -26.4960  -15.3300 C   0  0  0  0  0  0  0  0  0  0  0  0
  -14.1840  -25.2570  -15.4370 C   0  0  0  0  0  0  0  0  0  0  0  0
  -13.5430  -25.3400  -16.8370 C   0  0  0  0  0  0  0  0  0  0  0  0
  -14.3840  -26.3830  -17.5500 C   0  0  0  0  0  0  0  0  0  0  0  0
  -14.5840  -27.3930  -16.4600 C   0  0  0  0  0  0  0  0  0  0  0  0
  -14.8560  -24.5900  -10.4630 C   0  0  0  0  0  0  0  0  0  0  0  0
  -15.1200  -25.2510   -9.1180 C   0  0  0  0  0  0  0  0  0  0  0  0
  -14.2420  -26.0920   -8.4770 N   0  0  0  0  0  0  0  0  0  0  0  0
  -14.8520  -26.4390   -7.3640 C   0  0  0  0  0  0  0  0  0  0  0  0
  -14.4590  -27.2660   -6.3250 N   0  0  0  0  0  0  0  0  0  0  0  0
  -15.2660  -27.4740   -5.3520 C   0  0  0  0  0  0  0  0  0  0  0  0
  -14.8360  -28.3970   -4.2140 C   0  0  0  0  0  0  0  0  0  0  0  0
  -16.6370  -26.8520   -5.2540 C   0  0  0  0  0  0  0  0  0  0  0  0
  -16.9940  -26.0630   -6.2610 C   0  0  0  0  0  0  0  0  0  0  0  0
  -18.3410  -25.3720   -6.3130 C   0  0  0  0  0  0  0  0  0  0  0  0
  -16.1030  -25.8330   -7.3480 N   0  0  0  0  0  0  0  0  0  0  0  0
  -16.2890  -25.0960   -8.4390 N   0  0  0  0  0  0  0  0  0  0  0  0
  -15.5490  -28.7320  -14.0830 C   0  0  0  0  0  0  0  0  0  0  0  0
  -16.9700  -29.2220  -14.4440 C   0  0  0  0  0  0  0  0  0  0  0  0
  -18.4840  -29.5910  -10.9800 C   0  0  0  0  0  0  0  0  0  0  0  0
  -19.7690  -29.8970  -11.2600 N   0  0  0  0  0  0  0  0  0  0  0  0
  -20.1370  -30.0650  -12.5430 C   0  0  0  0  0  0  0  0  0  0  0  0
  -19.2490  -29.8720  -13.6170 C   0  0  0  0  0  0  0  0  0  0  0  0
  -17.9360  -29.5220  -13.3290 C   0  0  0  0  0  0  0  0  0  0  0  0
  -17.5480  -29.3950  -12.0030 C   0  0  0  0  0  0  0  0  0  0  0  0
  -18.4690  -28.0490   -8.9920 C   0  0  0  0  0  0  0  0  0  0  0  0
  -18.0740  -29.4250   -9.5330 C   0  0  0  0  0  0  0  0  0  0  0  0
  -21.5700  -30.4270  -12.8460 C   0  0  0  0  0  0  0  0  0  0  0  0
  -22.3730  -30.5430  -11.5570 C   0  0  0  0  0  0  0  0  0  0  0  0
  1 26  1  6  0  0  0
  1  2  1  0  0  0  0
  1  8  1  0  0  0  0
  2  3  1  0  0  0  0
  3  4  2  0  0  0  0
  3  5  1  0  0  0  0
  5 14  1  6  0  0  0
  6  7  2  0  0  0  0
  6  5  1  0  0  0  0
  8  6  1  0  0  0  0
  9  1  1  0  0  0  0
 10  9  1  0  0  0  0
 11 10  1  0  0  0  0
 12 11  1  0  0  0  0
 12 13  1  0  0  0  0
 13  9  1  0  0  0  0
 14 15  1  0  0  0  0
 15 16  2  0  0  0  0
 15 25  2  0  0  0  0
 16 17  2  0  0  0  0
 17 24  1  0  0  0  0
 17 18  2  0  0  0  0
 18 19  2  0  0  0  0
 19 21  1  0  0  0  0
 19 20  1  0  0  0  0
 22 21  2  0  0  0  0
 23 22  1  0  0  0  0
 24 22  1  0  0  0  0
 25 24  1  0  0  0  0
 27 26  1  0  0  0  0
 27 32  1  0  0  0  0
 28 35  1  0  0  0  0
 29 28  2  0  0  0  0
 30 29  2  0  0  0  0
 31 32  1  0  0  0  0
 31 30  1  0  0  0  0
 32 33  2  0  0  0  0
 33 28  1  0  0  0  0
 35 34  1  0  0  0  0
 36 30  1  0  0  0  0
 36 37  1  0  0  0  0
M  END
>  <minimizedAffinity>
-8.92989635

$$$$

 OpenBabel12271914413D

 37 41  0  0  1  0  0  0  0  0999 V2000
  -20.0770  -27.2320  -10.1260 C   0  0  2  0  0  0  0  0  0  0  0  0
  -20.5810  -25.8820   -9.9300 O   0  0  0  0  0  0  0  0  0  0  0  0
  -21.8780  -25.5310   -9.7150 C   0  0  0  0  0  0  0  0  0  0  0  0
  -22.1220  -24.3710   -9.4010 O   0  0  0  0  0  0  0  0  0  0  0  0
  -22.8830  -26.5830   -9.8570 C   0  0  1  0  0  0  0  0  0  0  0  0
  -22.6300  -27.9040  -10.1580 C   0  0  0  0  0  0  0  0  0  0  0  0
  -23.4050  -28.8590  -10.2570 O   0  0  0  0  0  0  0  0  0  0  0  0
  -21.1810  -28.2980  -10.4090 C   0  0  0  0  0  0  0  0  0  0  0  0
  -19.3480  -27.5980   -8.8260 C   0  0  0  0  0  0  0  0  0  0  0  0
  -18.0090  -28.3810   -8.9590 C   0  0  0  0  0  0  0  0  0  0  0  0
  -17.0700  -27.7850   -7.8910 C   0  0  0  0  0  0  0  0  0  0  0  0
  -18.0040  -26.9720   -7.0130 C   0  0  0  0  0  0  0  0  0  0  0  0
  -18.9030  -26.3500   -8.0390 C   0  0  0  0  0  0  0  0  0  0  0  0
  -24.3340  -26.2140   -9.6110 C   0  0  0  0  0  0  0  0  0  0  0  0
  -24.6730  -26.0470   -8.1370 C   0  0  0  0  0  0  0  0  0  0  0  0
  -24.9080  -24.8410   -7.5220 N   0  0  0  0  0  0  0  0  0  0  0  0
  -25.1570  -25.1400   -6.2650 C   0  0  0  0  0  0  0  0  0  0  0  0
  -25.4610  -24.3390   -5.1770 N   0  0  0  0  0  0  0  0  0  0  0  0
  -25.6280  -24.8820   -4.0290 C   0  0  0  0  0  0  0  0  0  0  0  0
  -25.9490  -23.9960   -2.8270 C   0  0  0  0  0  0  0  0  0  0  0  0
  -25.5310  -26.3670   -3.7830 C   0  0  0  0  0  0  0  0  0  0  0  0
  -25.2400  -27.1170   -4.8390 C   0  0  0  0  0  0  0  0  0  0  0  0
  -25.0990  -28.6230   -4.7540 C   0  0  0  0  0  0  0  0  0  0  0  0
  -25.0460  -26.5180   -6.1170 N   0  0  0  0  0  0  0  0  0  0  0  0
  -24.7360  -27.0980   -7.2730 N   0  0  0  0  0  0  0  0  0  0  0  0
  -19.1380  -27.0520  -11.3550 C   0  0  0  0  0  0  0  0  0  0  0  0
  -18.3940  -25.7330  -11.6680 C   0  0  0  0  0  0  0  0  0  0  0  0
  -14.9280  -25.5450  -10.1260 C   0  0  0  0  0  0  0  0  0  0  0  0
  -14.1290  -25.8020  -11.1840 N   0  0  0  0  0  0  0  0  0  0  0  0
  -14.6840  -25.9560  -12.4010 C   0  0  0  0  0  0  0  0  0  0  0  0
  -16.0750  -25.9240  -12.6080 C   0  0  0  0  0  0  0  0  0  0  0  0
  -16.8970  -25.6940  -11.5120 C   0  0  0  0  0  0  0  0  0  0  0  0
  -16.3200  -25.4900  -10.2670 C   0  0  0  0  0  0  0  0  0  0  0  0
  -15.2320  -24.6100   -7.8100 C   0  0  0  0  0  0  0  0  0  0  0  0
  -14.2940  -25.3520   -8.7660 C   0  0  0  0  0  0  0  0  0  0  0  0
  -13.7830  -26.2230  -13.5810 C   0  0  0  0  0  0  0  0  0  0  0  0
  -13.8620  -27.6880  -13.9900 C   0  0  0  0  0  0  0  0  0  0  0  0
  1 26  1  6  0  0  0
  1  2  1  0  0  0  0
  1  9  1  0  0  0  0
  2  3  1  0  0  0  0
  3  4  2  0  0  0  0
  5  3  1  0  0  0  0
  5 14  1  1  0  0  0
  6  5  1  0  0  0  0
  7  6  2  0  0  0  0
  8  6  1  0  0  0  0
  8  1  1  0  0  0  0
  9 13  1  0  0  0  0
 10  9  1  0  0  0  0
 10 11  1  0  0  0  0
 11 12  1  0  0  0  0
 13 12  1  0  0  0  0
 14 15  1  0  0  0  0
 15 16  2  0  0  0  0
 15 25  2  0  0  0  0
 16 17  2  0  0  0  0
 17 24  1  0  0  0  0
 17 18  2  0  0  0  0
 18 19  2  0  0  0  0
 19 21  1  0  0  0  0
 19 20  1  0  0  0  0
 22 23  1  0  0  0  0
 22 21  2  0  0  0  0
 24 22  1  0  0  0  0
 25 24  1  0  0  0  0
 27 32  1  0  0  0  0
 27 26  1  0  0  0  0
 28 35  1  0  0  0  0
 29 28  2  0  0  0  0
 30 29  2  0  0  0  0
 31 30  1  0  0  0  0
 31 32  1  0  0  0  0
 32 33  2  0  0  0  0
 33 28  1  0  0  0  0
 35 34  1  0  0  0  0
 36 30  1  0  0  0  0
 37 36  1  0  0  0  0
M  END
>  <minimizedAffinity>
-8.88457489

$$$$

 OpenBabel12271914413D

 37 41  0  0  1  0  0  0  0  0999 V2000
  -19.5000  -26.8420   -8.8760 C   0  0  2  0  0  0  0  0  0  0  0  0
  -18.8600  -25.8940   -9.7730 O   0  0  0  0  0  0  0  0  0  0  0  0
  -17.9210  -26.1840  -10.7140 C   0  0  0  0  0  0  0  0  0  0  0  0
  -17.6000  -25.3040  -11.5060 O   0  0  0  0  0  0  0  0  0  0  0  0
  -17.3810  -27.5420  -10.7160 C   0  0  1  0  0  0  0  0  0  0  0  0
  -17.7620  -28.5620   -9.8720 C   0  0  0  0  0  0  0  0  0  0  0  0
  -17.3930  -29.7380   -9.8290 O   0  0  0  0  0  0  0  0  0  0  0  0
  -18.8050  -28.2380   -8.8110 C   0  0  0  0  0  0  0  0  0  0  0  0
  -20.9290  -27.0170   -9.4040 C   0  0  0  0  0  0  0  0  0  0  0  0
  -21.5570  -25.8130  -10.1670 C   0  0  0  0  0  0  0  0  0  0  0  0
  -22.3450  -26.4280  -11.3410 C   0  0  0  0  0  0  0  0  0  0  0  0
  -22.4090  -27.9040  -10.9890 C   0  0  0  0  0  0  0  0  0  0  0  0
  -21.0260  -28.1380  -10.4570 C   0  0  0  0  0  0  0  0  0  0  0  0
  -16.3410  -27.8880  -11.7650 C   0  0  0  0  0  0  0  0  0  0  0  0
  -16.9020  -28.6850  -12.9340 C   0  0  0  0  0  0  0  0  0  0  0  0
  -16.1940  -29.0130  -14.0650 N   0  0  0  0  0  0  0  0  0  0  0  0
  -17.0380  -29.6900  -14.8130 C   0  0  0  0  0  0  0  0  0  0  0  0
  -16.8910  -30.2740  -16.0600 N   0  0  0  0  0  0  0  0  0  0  0  0
  -17.8960  -30.8570  -16.6000 C   0  0  0  0  0  0  0  0  0  0  0  0
  -17.7360  -31.4880  -17.9810 C   0  0  0  0  0  0  0  0  0  0  0  0
  -19.2510  -30.9670  -15.9450 C   0  0  0  0  0  0  0  0  0  0  0  0
  -19.3710  -30.4010  -14.7500 C   0  0  0  0  0  0  0  0  0  0  0  0
  -20.6680  -30.4180  -13.9680 C   0  0  0  0  0  0  0  0  0  0  0  0
  -18.2580  -29.7450  -14.1480 N   0  0  0  0  0  0  0  0  0  0  0  0
  -18.1920  -29.1150  -12.9790 N   0  0  0  0  0  0  0  0  0  0  0  0
  -19.4120  -26.1040   -7.5070 C   0  0  0  0  0  0  0  0  0  0  0  0
  -18.1590  -25.3250   -7.0430 C   0  0  0  0  0  0  0  0  0  0  0  0
  -15.7530  -27.4950   -5.0610 C   0  0  0  0  0  0  0  0  0  0  0  0
  -14.7520  -27.6930   -5.9450 N   0  0  0  0  0  0  0  0  0  0  0  0
  -14.8010  -27.0740   -7.1390 C   0  0  0  0  0  0  0  0  0  0  0  0
  -15.8890  -26.2750   -7.5330 C   0  0  0  0  0  0  0  0  0  0  0  0
  -16.9360  -26.1010   -6.6360 C   0  0  0  0  0  0  0  0  0  0  0  0
  -16.8610  -26.7030   -5.3890 C   0  0  0  0  0  0  0  0  0  0  0  0
  -14.3980  -29.0020   -3.5710 C   0  0  0  0  0  0  0  0  0  0  0  0
  -15.6800  -28.1770   -3.7130 C   0  0  0  0  0  0  0  0  0  0  0  0
  -13.6680  -27.2850   -8.1120 C   0  0  0  0  0  0  0  0  0  0  0  0
  -13.2460  -25.9590   -8.7320 C   0  0  0  0  0  0  0  0  0  0  0  0
  1  8  1  0  0  0  0
  1 26  1  1  0  0  0
  2  1  1  0  0  0  0
  3  2  1  0  0  0  0
  4  3  2  0  0  0  0
  5 14  1  6  0  0  0
  5  3  1  0  0  0  0
  5  6  1  0  0  0  0
  6  7  2  0  0  0  0
  6  8  1  0  0  0  0
  9  1  1  0  0  0  0
 10  9  1  0  0  0  0
 11 12  1  0  0  0  0
 11 10  1  0  0  0  0
 12 13  1  0  0  0  0
 13  9  1  0  0  0  0
 15 14  1  0  0  0  0
 16 15  2  0  0  0  0
 17 24  1  0  0  0  0
 17 16  2  0  0  0  0
 18 17  2  0  0  0  0
 19 18  2  0  0  0  0
 19 21  1  0  0  0  0
 20 19  1  0  0  0  0
 21 22  2  0  0  0  0
 22 24  1  0  0  0  0
 22 23  1  0  0  0  0
 24 25  1  0  0  0  0
 25 15  2  0  0  0  0
 26 27  1  0  0  0  0
 27 32  1  0  0  0  0
 28 35  1  0  0  0  0
 29 28  2  0  0  0  0
 30 29  2  0  0  0  0
 31 30  1  0  0  0  0
 31 32  1  0  0  0  0
 32 33  2  0  0  0  0
 33 28  1  0  0  0  0
 35 34  1  0  0  0  0
 36 30  1  0  0  0  0
 37 36  1  0  0  0  0
M  END
>  <minimizedAffinity>
-8.87923908

$$$$
