
 OpenBabel12271914383D

 22 23  0  0  1  0  0  0  0  0999 V2000
  -13.3480  -26.2070   -9.8510 C   0  0  2  0  0  0  0  0  0  0  0  0
  -14.4770  -25.2020  -10.0020 C   0  0  2  0  0  0  0  0  0  0  0  0
  -15.1910  -25.1260   -8.6630 O   0  0  0  0  0  0  0  0  0  0  0  0
  -14.3990  -25.9880   -7.8010 C   0  0  2  0  0  0  0  0  0  0  0  0
  -13.8050  -27.0220   -8.6760 C   0  0  0  0  0  0  0  0  0  0  0  0
  -15.2240  -26.6920   -6.7980 C   0  0  0  0  0  0  0  0  0  0  0  0
  -16.5050  -26.2140   -6.5530 C   0  0  0  0  0  0  0  0  0  0  0  0
  -17.1680  -26.5400   -5.3660 C   0  0  0  0  0  0  0  0  0  0  0  0
  -18.4910  -25.9300   -5.0970 C   0  0  0  0  0  0  0  0  0  0  0  0
  -16.5310  -27.4160   -4.4990 C   0  0  0  0  0  0  0  0  0  0  0  0
  -15.3060  -27.9570   -4.7410 N   0  0  0  0  0  0  0  0  0  0  0  0
  -14.6820  -27.5810   -5.8990 C   0  0  0  0  0  0  0  0  0  0  0  0
  -17.0810  -27.7790   -3.2890 O   0  0  0  0  0  0  0  0  0  0  0  0
  -17.4560  -27.0110   -2.8410 H   0  0  0  0  0  0  0  0  0  0  0  0
  -12.1180  -25.5590   -9.4720 O   0  0  0  0  0  0  0  0  0  0  0  0
  -11.9930  -24.8350  -10.1250 H   0  0  0  0  0  0  0  0  0  0  0  0
  -15.4830  -25.6500  -11.0300 C   0  0  0  0  0  0  0  0  0  0  0  0
  -16.7310  -25.9260  -10.4030 O   0  0  0  0  0  0  0  0  0  0  0  0
  -17.3790  -27.4390  -10.6560 P   0  0  0  0  0  0  0  0  0  0  0  0
  -16.7750  -27.8910  -11.9680 O   0  0  0  0  0  0  0  0  0  0  0  0
  -18.8430  -27.1510  -10.7710 O   0  0  0  0  0  0  0  0  0  0  0  0
  -16.9460  -28.2640   -9.4940 O   0  0  0  0  0  0  0  0  0  0  0  0
  1 15  1  1  0  0  0
  1  5  1  0  0  0  0
  2 17  1  6  0  0  0
  2  1  1  0  0  0  0
  2  3  1  0  0  0  0
  3  4  1  0  0  0  0
  4  6  1  1  0  0  0
  5  4  1  0  0  0  0
  6  7  1  0  0  0  0
  6 12  2  0  0  0  0
  7  8  2  0  0  0  0
  8  9  1  0  0  0  0
  8 10  1  0  0  0  0
 10 13  1  0  0  0  0
 11 10  2  0  0  0  0
 12 11  1  0  0  0  0
 13 14  1  0  0  0  0
 16 15  1  0  0  0  0
 17 18  1  0  0  0  0
 19 18  1  0  0  0  0
 19 22  1  0  0  0  0
 20 19  2  0  0  0  0
 21 19  1  0  0  0  0
M  END
>  <minimizedAffinity>
-7.69370222

$$$$

 OpenBabel12271914383D

 22 23  0  0  1  0  0  0  0  0999 V2000
  -14.4930  -26.6380  -10.5240 C   0  0  2  0  0  0  0  0  0  0  0  0
  -15.9080  -26.1840  -10.8350 C   0  0  2  0  0  0  0  0  0  0  0  0
  -16.4690  -25.5660   -9.5650 O   0  0  0  0  0  0  0  0  0  0  0  0
  -15.3470  -25.6000   -8.6410 C   0  0  2  0  0  0  0  0  0  0  0  0
  -14.5220  -26.7650   -9.0290 C   0  0  0  0  0  0  0  0  0  0  0  0
  -15.7740  -25.8190   -7.2440 C   0  0  0  0  0  0  0  0  0  0  0  0
  -15.0200  -26.6800   -6.4570 C   0  0  0  0  0  0  0  0  0  0  0  0
  -15.5710  -27.2540   -5.3080 C   0  0  0  0  0  0  0  0  0  0  0  0
  -14.7690  -28.2430   -4.5490 C   0  0  0  0  0  0  0  0  0  0  0  0
  -16.8540  -26.8650   -4.9510 C   0  0  0  0  0  0  0  0  0  0  0  0
  -17.5950  -25.9720   -5.6630 N   0  0  0  0  0  0  0  0  0  0  0  0
  -17.0270  -25.4630   -6.7980 C   0  0  0  0  0  0  0  0  0  0  0  0
  -17.5030  -27.3920   -3.8560 O   0  0  0  0  0  0  0  0  0  0  0  0
  -17.3720  -28.3480   -3.8090 H   0  0  0  0  0  0  0  0  0  0  0  0
  -13.5320  -25.6160  -10.8510 O   0  0  0  0  0  0  0  0  0  0  0  0
  -13.7280  -25.3590  -11.7780 H   0  0  0  0  0  0  0  0  0  0  0  0
  -16.7940  -27.3440  -11.2060 C   0  0  0  0  0  0  0  0  0  0  0  0
  -17.9380  -27.3750  -10.3600 O   0  0  0  0  0  0  0  0  0  0  0  0
  -18.2210  -28.7920   -9.5320 P   0  0  0  0  0  0  0  0  0  0  0  0
  -17.4820  -29.8460  -10.3280 O   0  0  0  0  0  0  0  0  0  0  0  0
  -19.7070  -28.9370   -9.6340 O   0  0  0  0  0  0  0  0  0  0  0  0
  -17.6590  -28.5830   -8.1690 O   0  0  0  0  0  0  0  0  0  0  0  0
  1 15  1  1  0  0  0
  1  5  1  0  0  0  0
  2 17  1  1  0  0  0
  2  1  1  0  0  0  0
  2  3  1  0  0  0  0
  3  4  1  0  0  0  0
  4  6  1  1  0  0  0
  5  4  1  0  0  0  0
  6 12  2  0  0  0  0
  6  7  1  0  0  0  0
  7  8  2  0  0  0  0
  8 10  1  0  0  0  0
  8  9  1  0  0  0  0
 10 13  1  0  0  0  0
 11 10  2  0  0  0  0
 12 11  1  0  0  0  0
 13 14  1  0  0  0  0
 16 15  1  0  0  0  0
 17 18  1  0  0  0  0
 18 19  1  0  0  0  0
 19 22  1  0  0  0  0
 20 19  2  0  0  0  0
 21 19  1  0  0  0  0
M  END
>  <minimizedAffinity>
-7.36721468

$$$$

 OpenBabel12271914383D

 22 23  0  0  1  0  0  0  0  0999 V2000
  -19.7190  -25.6240   -6.3190 C   0  0  2  0  0  0  0  0  0  0  0  0
  -19.8160  -26.5940   -7.4830 C   0  0  2  0  0  0  0  0  0  0  0  0
  -18.4010  -27.0250   -7.8260 O   0  0  0  0  0  0  0  0  0  0  0  0
  -17.5880  -26.3820   -6.8070 C   0  0  2  0  0  0  0  0  0  0  0  0
  -18.3010  -25.1440   -6.4250 C   0  0  0  0  0  0  0  0  0  0  0  0
  -16.2620  -25.9780   -7.3160 C   0  0  0  0  0  0  0  0  0  0  0  0
  -16.1710  -25.5440   -8.6330 C   0  0  0  0  0  0  0  0  0  0  0  0
  -14.9420  -25.5520   -9.2980 C   0  0  0  0  0  0  0  0  0  0  0  0
  -14.9040  -25.1760  -10.7320 C   0  0  0  0  0  0  0  0  0  0  0  0
  -13.8230  -25.9260   -8.5690 C   0  0  0  0  0  0  0  0  0  0  0  0
  -13.8670  -26.2900   -7.2580 N   0  0  0  0  0  0  0  0  0  0  0  0
  -15.0960  -26.3010   -6.6600 C   0  0  0  0  0  0  0  0  0  0  0  0
  -12.5690  -25.9980   -9.1350 O   0  0  0  0  0  0  0  0  0  0  0  0
  -12.6110  -26.4170  -10.0040 H   0  0  0  0  0  0  0  0  0  0  0  0
  -19.8490  -26.3070   -5.0570 O   0  0  0  0  0  0  0  0  0  0  0  0
  -20.6700  -26.8390   -5.1310 H   0  0  0  0  0  0  0  0  0  0  0  0
  -20.4000  -25.9350   -8.7050 C   0  0  0  0  0  0  0  0  0  0  0  0
  -21.5940  -25.2390   -8.3620 O   0  0  0  0  0  0  0  0  0  0  0  0
  -22.4860  -24.6140   -9.6210 P   0  0  0  0  0  0  0  0  0  0  0  0
  -23.7490  -25.4480   -9.6350 O   0  0  0  0  0  0  0  0  0  0  0  0
  -21.6120  -24.8830  -10.8050 O   0  0  0  0  0  0  0  0  0  0  0  0
  -22.7270  -23.1860   -9.2750 O   0  0  0  0  0  0  0  0  0  0  0  0
  1 15  1  1  0  0  0
  2 17  1  6  0  0  0
  2  1  1  0  0  0  0
  3  2  1  0  0  0  0
  3  4  1  0  0  0  0
  4  6  1  6  0  0  0
  4  5  1  0  0  0  0
  5  1  1  0  0  0  0
  6 12  2  0  0  0  0
  7  6  1  0  0  0  0
  8  7  2  0  0  0  0
  8 10  1  0  0  0  0
  9  8  1  0  0  0  0
 10 11  2  0  0  0  0
 11 12  1  0  0  0  0
 13 10  1  0  0  0  0
 14 13  1  0  0  0  0
 16 15  1  0  0  0  0
 17 18  1  0  0  0  0
 19 22  1  0  0  0  0
 19 18  1  0  0  0  0
 20 19  1  0  0  0  0
 21 19  2  0  0  0  0
M  END
>  <minimizedAffinity>
-7.31007385

$$$$

 OpenBabel12271914383D

 22 23  0  0  1  0  0  0  0  0999 V2000
  -13.3560  -26.2280   -9.8540 C   0  0  2  0  0  0  0  0  0  0  0  0
  -14.4710  -25.2090  -10.0120 C   0  0  2  0  0  0  0  0  0  0  0  0
  -15.1900  -25.1210   -8.6770 O   0  0  0  0  0  0  0  0  0  0  0  0
  -14.4120  -25.9920   -7.8090 C   0  0  2  0  0  0  0  0  0  0  0  0
  -13.8280  -27.0340   -8.6800 C   0  0  0  0  0  0  0  0  0  0  0  0
  -15.2500  -26.6830   -6.8080 C   0  0  0  0  0  0  0  0  0  0  0  0
  -16.5380  -26.2100   -6.5950 C   0  0  0  0  0  0  0  0  0  0  0  0
  -17.2200  -26.5190   -5.4140 C   0  0  0  0  0  0  0  0  0  0  0  0
  -18.5530  -25.9140   -5.1800 C   0  0  0  0  0  0  0  0  0  0  0  0
  -16.5930  -27.3740   -4.5200 C   0  0  0  0  0  0  0  0  0  0  0  0
  -15.3600  -27.9100   -4.7300 N   0  0  0  0  0  0  0  0  0  0  0  0
  -14.7180  -27.5520   -5.8830 C   0  0  0  0  0  0  0  0  0  0  0  0
  -17.1610  -27.7190   -3.3130 O   0  0  0  0  0  0  0  0  0  0  0  0
  -17.5510  -26.9450   -2.8860 H   0  0  0  0  0  0  0  0  0  0  0  0
  -12.1200  -25.5940   -9.4720 O   0  0  0  0  0  0  0  0  0  0  0  0
  -11.9820  -24.8740  -10.1250 H   0  0  0  0  0  0  0  0  0  0  0  0
  -15.4790  -25.6470  -11.0430 C   0  0  0  0  0  0  0  0  0  0  0  0
  -14.8580  -25.7500  -12.3190 O   0  0  0  0  0  0  0  0  0  0  0  0
  -15.3590  -27.0000  -13.2990 P   0  0  0  0  0  0  0  0  0  0  0  0
  -16.2370  -27.8490  -12.4040 O   0  0  0  0  0  0  0  0  0  0  0  0
  -14.0710  -27.6780  -13.6450 O   0  0  0  0  0  0  0  0  0  0  0  0
  -16.1040  -26.3620  -14.4190 O   0  0  0  0  0  0  0  0  0  0  0  0
  1 15  1  1  0  0  0
  1  5  1  0  0  0  0
  2 17  1  6  0  0  0
  2  1  1  0  0  0  0
  2  3  1  0  0  0  0
  3  4  1  0  0  0  0
  4  6  1  1  0  0  0
  5  4  1  0  0  0  0
  6  7  1  0  0  0  0
  6 12  2  0  0  0  0
  7  8  2  0  0  0  0
  8  9  1  0  0  0  0
  8 10  1  0  0  0  0
 10 13  1  0  0  0  0
 11 10  2  0  0  0  0
 12 11  1  0  0  0  0
 13 14  1  0  0  0  0
 16 15  1  0  0  0  0
 18 17  1  0  0  0  0
 19 20  1  0  0  0  0
 19 18  1  0  0  0  0
 21 19  1  0  0  0  0
 22 19  2  0  0  0  0
M  END
>  <minimizedAffinity>
-7.29832554

$$$$

 OpenBabel12271914383D

 22 23  0  0  1  0  0  0  0  0999 V2000
  -13.5790  -26.4450   -9.1210 C   0  0  2  0  0  0  0  0  0  0  0  0
  -14.4550  -25.3510   -9.7050 C   0  0  2  0  0  0  0  0  0  0  0  0
  -15.5250  -25.0340   -8.6740 O   0  0  0  0  0  0  0  0  0  0  0  0
  -15.1630  -25.8650   -7.5360 C   0  0  2  0  0  0  0  0  0  0  0  0
  -14.4820  -27.0550   -8.0890 C   0  0  0  0  0  0  0  0  0  0  0  0
  -16.3440  -26.3470   -6.7930 C   0  0  0  0  0  0  0  0  0  0  0  0
  -17.6020  -25.9760   -7.2520 C   0  0  0  0  0  0  0  0  0  0  0  0
  -18.7100  -26.0270   -6.4010 C   0  0  0  0  0  0  0  0  0  0  0  0
  -20.0140  -25.5300   -6.8980 C   0  0  0  0  0  0  0  0  0  0  0  0
  -18.5120  -26.5370   -5.1260 C   0  0  0  0  0  0  0  0  0  0  0  0
  -17.3080  -26.9730   -4.6680 N   0  0  0  0  0  0  0  0  0  0  0  0
  -16.2460  -26.8710   -5.5240 C   0  0  0  0  0  0  0  0  0  0  0  0
  -19.5280  -26.6030   -4.1980 O   0  0  0  0  0  0  0  0  0  0  0  0
  -20.0490  -25.7900   -4.2030 H   0  0  0  0  0  0  0  0  0  0  0  0
  -12.4450  -25.8910   -8.4260 O   0  0  0  0  0  0  0  0  0  0  0  0
  -12.0260  -25.2720   -9.0620 H   0  0  0  0  0  0  0  0  0  0  0  0
  -15.1530  -25.8100  -10.9590 C   0  0  0  0  0  0  0  0  0  0  0  0
  -16.5640  -25.7460  -10.7830 O   0  0  0  0  0  0  0  0  0  0  0  0
  -17.4220  -27.1410  -11.0800 P   0  0  0  0  0  0  0  0  0  0  0  0
  -17.0680  -27.5020  -12.5070 O   0  0  0  0  0  0  0  0  0  0  0  0
  -18.8410  -26.6860  -10.9420 O   0  0  0  0  0  0  0  0  0  0  0  0
  -16.9350  -28.1350  -10.0840 O   0  0  0  0  0  0  0  0  0  0  0  0
  1 15  1  1  0  0  0
  1  5  1  0  0  0  0
  2 17  1  6  0  0  0
  2  1  1  0  0  0  0
  2  3  1  0  0  0  0
  3  4  1  0  0  0  0
  4  6  1  6  0  0  0
  5  4  1  0  0  0  0
  6 12  2  0  0  0  0
  7  6  1  0  0  0  0
  7  8  2  0  0  0  0
  8 10  1  0  0  0  0
  9  8  1  0  0  0  0
 10 11  2  0  0  0  0
 10 13  1  0  0  0  0
 12 11  1  0  0  0  0
 14 13  1  0  0  0  0
 16 15  1  0  0  0  0
 17 18  1  0  0  0  0
 19 21  1  0  0  0  0
 19 18  1  0  0  0  0
 19 22  1  0  0  0  0
 20 19  2  0  0  0  0
M  END
>  <minimizedAffinity>
-7.14977503

$$$$

 OpenBabel12271914383D

 22 23  0  0  1  0  0  0  0  0999 V2000
  -15.9590  -26.8870   -6.0550 C   0  0  2  0  0  0  0  0  0  0  0  0
  -16.9880  -27.3510   -7.0700 C   0  0  2  0  0  0  0  0  0  0  0  0
  -16.3010  -27.3790   -8.4240 O   0  0  0  0  0  0  0  0  0  0  0  0
  -14.9210  -27.0380   -8.1170 C   0  0  2  0  0  0  0  0  0  0  0  0
  -14.9620  -26.1720   -6.9190 C   0  0  0  0  0  0  0  0  0  0  0  0
  -14.2810  -26.2560   -9.1950 C   0  0  0  0  0  0  0  0  0  0  0  0
  -14.9190  -26.1970  -10.4270 C   0  0  0  0  0  0  0  0  0  0  0  0
  -14.2050  -25.8540  -11.5790 C   0  0  0  0  0  0  0  0  0  0  0  0
  -14.8980  -25.8990  -12.8880 C   0  0  0  0  0  0  0  0  0  0  0  0
  -12.8740  -25.4990  -11.4220 C   0  0  0  0  0  0  0  0  0  0  0  0
  -12.2360  -25.4800  -10.2200 N   0  0  0  0  0  0  0  0  0  0  0  0
  -12.9660  -25.8570   -9.1270 C   0  0  0  0  0  0  0  0  0  0  0  0
  -12.0700  -25.1740  -12.4930 O   0  0  0  0  0  0  0  0  0  0  0  0
  -12.2140  -25.7860  -13.2260 H   0  0  0  0  0  0  0  0  0  0  0  0
  -15.2800  -28.0050   -5.4500 O   0  0  0  0  0  0  0  0  0  0  0  0
  -15.9920  -28.6000   -5.1280 H   0  0  0  0  0  0  0  0  0  0  0  0
  -18.1440  -26.3890   -7.1650 C   0  0  0  0  0  0  0  0  0  0  0  0
  -18.4660  -26.1470   -8.5300 O   0  0  0  0  0  0  0  0  0  0  0  0
  -19.9110  -26.7630   -9.0820 P   0  0  0  0  0  0  0  0  0  0  0  0
  -20.1590  -26.0300  -10.3830 O   0  0  0  0  0  0  0  0  0  0  0  0
  -20.8700  -26.3550   -8.0060 O   0  0  0  0  0  0  0  0  0  0  0  0
  -19.6860  -28.2230   -9.2620 O   0  0  0  0  0  0  0  0  0  0  0  0
  1 15  1  6  0  0  0
  2 17  1  6  0  0  0
  2  1  1  0  0  0  0
  3  4  1  0  0  0  0
  3  2  1  0  0  0  0
  4  6  1  6  0  0  0
  4  5  1  0  0  0  0
  5  1  1  0  0  0  0
  6 12  2  0  0  0  0
  7  6  1  0  0  0  0
  8 10  1  0  0  0  0
  8  7  2  0  0  0  0
  9  8  1  0  0  0  0
 10 11  2  0  0  0  0
 11 12  1  0  0  0  0
 13 10  1  0  0  0  0
 14 13  1  0  0  0  0
 15 16  1  0  0  0  0
 18 17  1  0  0  0  0
 19 18  1  0  0  0  0
 19 21  1  0  0  0  0
 20 19  2  0  0  0  0
 22 19  1  0  0  0  0
M  END
>  <minimizedAffinity>
-6.90633535

$$$$

 OpenBabel12271914383D

 22 23  0  0  1  0  0  0  0  0999 V2000
  -15.6590  -27.0900  -10.2660 C   0  0  2  0  0  0  0  0  0  0  0  0
  -16.7990  -26.0870  -10.2700 C   0  0  2  0  0  0  0  0  0  0  0  0
  -16.8530  -25.4650   -8.8850 O   0  0  0  0  0  0  0  0  0  0  0  0
  -15.7100  -26.0480   -8.2000 C   0  0  2  0  0  0  0  0  0  0  0  0
  -15.4990  -27.3820   -8.8020 C   0  0  0  0  0  0  0  0  0  0  0  0
  -15.9630  -26.2580   -6.7600 C   0  0  0  0  0  0  0  0  0  0  0  0
  -15.0660  -27.0430   -6.0470 C   0  0  0  0  0  0  0  0  0  0  0  0
  -15.4430  -27.6230   -4.8320 C   0  0  0  0  0  0  0  0  0  0  0  0
  -14.4930  -28.5330   -4.1500 C   0  0  0  0  0  0  0  0  0  0  0  0
  -16.7030  -27.3130   -4.3400 C   0  0  0  0  0  0  0  0  0  0  0  0
  -17.5800  -26.4930   -4.9810 N   0  0  0  0  0  0  0  0  0  0  0  0
  -17.1800  -25.9770   -6.1820 C   0  0  0  0  0  0  0  0  0  0  0  0
  -17.1860  -27.8540   -3.1690 O   0  0  0  0  0  0  0  0  0  0  0  0
  -16.9820  -28.7960   -3.1190 H   0  0  0  0  0  0  0  0  0  0  0  0
  -14.4310  -26.4880  -10.7200 O   0  0  0  0  0  0  0  0  0  0  0  0
  -14.6510  -26.0600  -11.5760 H   0  0  0  0  0  0  0  0  0  0  0  0
  -18.1250  -26.7570  -10.5200 C   0  0  0  0  0  0  0  0  0  0  0  0
  -19.0120  -25.8540  -11.1710 O   0  0  0  0  0  0  0  0  0  0  0  0
  -20.6390  -26.1860  -11.0540 P   0  0  0  0  0  0  0  0  0  0  0  0
  -20.9410  -27.0220  -12.2790 O   0  0  0  0  0  0  0  0  0  0  0  0
  -21.2550  -24.8240  -11.1270 O   0  0  0  0  0  0  0  0  0  0  0  0
  -20.8090  -26.9320   -9.7760 O   0  0  0  0  0  0  0  0  0  0  0  0
  1 15  1  1  0  0  0
  1  5  1  0  0  0  0
  2 17  1  1  0  0  0
  2  1  1  0  0  0  0
  2  3  1  0  0  0  0
  3  4  1  0  0  0  0
  4  6  1  1  0  0  0
  5  4  1  0  0  0  0
  6 12  2  0  0  0  0
  6  7  1  0  0  0  0
  7  8  2  0  0  0  0
  8 10  1  0  0  0  0
  8  9  1  0  0  0  0
 10 13  1  0  0  0  0
 11 10  2  0  0  0  0
 12 11  1  0  0  0  0
 13 14  1  0  0  0  0
 16 15  1  0  0  0  0
 18 19  1  0  0  0  0
 18 17  1  0  0  0  0
 19 22  1  0  0  0  0
 20 19  2  0  0  0  0
 21 19  1  0  0  0  0
M  END
>  <minimizedAffinity>
-6.78141832

$$$$

 OpenBabel12271914383D

 22 23  0  0  1  0  0  0  0  0999 V2000
  -15.4860  -26.7660   -6.8840 C   0  0  2  0  0  0  0  0  0  0  0  0
  -16.4260  -27.4780   -7.8410 C   0  0  2  0  0  0  0  0  0  0  0  0
  -15.7460  -27.5040   -9.1990 O   0  0  0  0  0  0  0  0  0  0  0  0
  -14.4420  -26.9130   -8.9430 C   0  0  2  0  0  0  0  0  0  0  0  0
  -14.6250  -25.9700   -7.8200 C   0  0  0  0  0  0  0  0  0  0  0  0
  -13.9450  -26.1290  -10.0910 C   0  0  0  0  0  0  0  0  0  0  0  0
  -14.6300  -26.2250  -11.2960 C   0  0  0  0  0  0  0  0  0  0  0  0
  -14.0070  -25.8700  -12.4960 C   0  0  0  0  0  0  0  0  0  0  0  0
  -14.7360  -26.0810  -13.7680 C   0  0  0  0  0  0  0  0  0  0  0  0
  -12.7250  -25.3460  -12.4180 C   0  0  0  0  0  0  0  0  0  0  0  0
  -12.0510  -25.1740  -11.2490 N   0  0  0  0  0  0  0  0  0  0  0  0
  -12.6880  -25.5680  -10.1040 C   0  0  0  0  0  0  0  0  0  0  0  0
  -12.0080  -24.9930  -13.5410 O   0  0  0  0  0  0  0  0  0  0  0  0
  -12.1010  -25.6630  -14.2300 H   0  0  0  0  0  0  0  0  0  0  0  0
  -14.6290  -27.7010   -6.2000 O   0  0  0  0  0  0  0  0  0  0  0  0
  -15.2300  -28.3780   -5.8200 H   0  0  0  0  0  0  0  0  0  0  0  0
  -17.7270  -26.7350   -7.9970 C   0  0  0  0  0  0  0  0  0  0  0  0
  -18.6390  -27.1290   -6.9780 O   0  0  0  0  0  0  0  0  0  0  0  0
  -19.1800  -25.9350   -5.9520 P   0  0  0  0  0  0  0  0  0  0  0  0
  -18.3080  -24.7400   -6.2740 O   0  0  0  0  0  0  0  0  0  0  0  0
  -18.8840  -26.5080   -4.6010 O   0  0  0  0  0  0  0  0  0  0  0  0
  -20.6140  -25.7260   -6.2930 O   0  0  0  0  0  0  0  0  0  0  0  0
  1 15  1  6  0  0  0
  2 17  1  6  0  0  0
  2  1  1  0  0  0  0
  3  4  1  0  0  0  0
  3  2  1  0  0  0  0
  4  6  1  6  0  0  0
  4  5  1  0  0  0  0
  5  1  1  0  0  0  0
  7  6  1  0  0  0  0
  8 10  1  0  0  0  0
  8  7  2  0  0  0  0
  9  8  1  0  0  0  0
 10 11  2  0  0  0  0
 11 12  1  0  0  0  0
 12  6  2  0  0  0  0
 13 10  1  0  0  0  0
 14 13  1  0  0  0  0
 15 16  1  0  0  0  0
 17 18  1  0  0  0  0
 18 19  1  0  0  0  0
 19 21  1  0  0  0  0
 20 19  1  0  0  0  0
 22 19  2  0  0  0  0
M  END
>  <minimizedAffinity>
-6.68904161

$$$$

 OpenBabel12271914383D

 22 23  0  0  1  0  0  0  0  0999 V2000
  -19.2890  -25.6610   -5.5930 C   0  0  2  0  0  0  0  0  0  0  0  0
  -20.2440  -26.1170   -6.6830 C   0  0  2  0  0  0  0  0  0  0  0  0
  -19.4090  -26.7910   -7.7570 O   0  0  0  0  0  0  0  0  0  0  0  0
  -18.0640  -26.7830   -7.2040 C   0  0  2  0  0  0  0  0  0  0  0  0
  -17.9810  -25.5960   -6.3260 C   0  0  0  0  0  0  0  0  0  0  0  0
  -17.0280  -26.6250   -8.2440 C   0  0  0  0  0  0  0  0  0  0  0  0
  -15.7010  -26.5570   -7.8410 C   0  0  0  0  0  0  0  0  0  0  0  0
  -14.7320  -26.0010   -8.6810 C   0  0  0  0  0  0  0  0  0  0  0  0
  -13.3470  -25.8560   -8.1760 C   0  0  0  0  0  0  0  0  0  0  0  0
  -15.1370  -25.6060   -9.9480 C   0  0  0  0  0  0  0  0  0  0  0  0
  -16.4150  -25.7230  -10.4000 N   0  0  0  0  0  0  0  0  0  0  0  0
  -17.3340  -26.2400   -9.5300 C   0  0  0  0  0  0  0  0  0  0  0  0
  -14.2710  -25.0180  -10.8450 O   0  0  0  0  0  0  0  0  0  0  0  0
  -13.7170  -24.3620  -10.4030 H   0  0  0  0  0  0  0  0  0  0  0  0
  -19.1560  -26.6600   -4.5630 O   0  0  0  0  0  0  0  0  0  0  0  0
  -20.0740  -26.8810   -4.2940 H   0  0  0  0  0  0  0  0  0  0  0  0
  -20.9530  -24.9510   -7.3220 C   0  0  0  0  0  0  0  0  0  0  0  0
  -21.6090  -25.3720   -8.5120 O   0  0  0  0  0  0  0  0  0  0  0  0
  -23.1330  -24.7610   -8.7860 P   0  0  0  0  0  0  0  0  0  0  0  0
  -22.8930  -23.3220   -9.1910 O   0  0  0  0  0  0  0  0  0  0  0  0
  -23.7760  -24.8740   -7.4380 O   0  0  0  0  0  0  0  0  0  0  0  0
  -23.7120  -25.5910   -9.8770 O   0  0  0  0  0  0  0  0  0  0  0  0
  1 15  1  1  0  0  0
  2 17  1  6  0  0  0
  2  1  1  0  0  0  0
  3  4  1  0  0  0  0
  3  2  1  0  0  0  0
  4  6  1  6  0  0  0
  4  5  1  0  0  0  0
  5  1  1  0  0  0  0
  6  7  1  0  0  0  0
  8  9  1  0  0  0  0
  8  7  2  0  0  0  0
 10  8  1  0  0  0  0
 11 10  2  0  0  0  0
 11 12  1  0  0  0  0
 12  6  2  0  0  0  0
 13 14  1  0  0  0  0
 13 10  1  0  0  0  0
 15 16  1  0  0  0  0
 18 17  1  0  0  0  0
 19 18  1  0  0  0  0
 19 21  1  0  0  0  0
 20 19  1  0  0  0  0
 22 19  2  0  0  0  0
M  END
>  <minimizedAffinity>
-6.66276836

$$$$
